Geom Title=amont_lourdes
Program Version=6.00
Viewing Rectangle= 441413.47 , 453911.53 , 6220399.64 , 6201158.36 

Junct Name=amont           
Junct Desc=, 0 , 0 ,-1 ,0
Junct X Y & Text X Y=449846.53125,6211820.5,449846.53125,6211820.5
Up River,Reach=Gave            ,Gavarnie
Up River,Reach=Gave            ,Cauterets
Dn River,Reach=Gave            ,Pau_amont
Junc L&A=106,
Junc L&A=125,

River Reach=Gave            ,Gavarnie        
Reach XY= 12 
        449687.3       6211401.5        449788.5       6211435.6
     449818.6908      6211465.31     449818.6908      6211465.31
        449818.8       6211475.3        449833.9       6211495.2
        449869.7       6211590.8        449875.1       6211650.6
        449870.5       6211690.6         449856.       6211750.7
        449851.3       6211790.7     449846.5292     6211820.637
Rch Text X Y=449727.1073,6211506.28425
Reverse River Text= 0 

Type RM Length L Ch R = 1 ,4421    ,64,64,64
XS GIS Cut Line=2
449700.8900337286211486.96349072449744.2642666066211335.15367564
Node Last Edited Time=Apr/10/2022 11:44:02
#Sta/Elev= 90 
       0  464.02     5.7     464     6.7  464.04     9.8  464.09    16.1  464.12
    19.5  464.06    22.7  464.04    25.4  463.98    27.5  463.89    28.4  463.77
    28.6  463.72      30  463.23    30.6  462.95    31.7  462.45    32.7  462.02
    33.2  461.84    33.8  461.68   34.08461.6184    34.8  461.46    38.1  461.29
    41.3  461.08    42.9  461.06    46.2  461.09    53.5  461.07    60.7  461.01
      65  461.01    68.1  460.96    73.3  460.98    73.7  461.04    74.3  461.16
    75.4  461.48    75.5  461.55   75.63461.6179    76.4  462.02    76.9  462.33
      77  462.37    77.4  462.71    79.5  464.23    80.1  464.55    80.6  464.74
    81.8  465.05    82.3  465.13    83.7  465.28    84.2  465.31    84.7  465.33
    89.8  465.31      92  465.27      93  465.27    97.1  465.34   102.4  465.39
   105.5  465.47   108.6  465.65   109.7  465.69   110.9  465.71   112.5  465.62
   112.8  465.57   113.8  465.24   114.1  465.11   114.9   464.6   115.7  464.15
   115.9  464.06     117  463.67   117.4  463.57   117.7  463.53     118  463.47
   118.2  463.46   118.7  463.45     119  463.44   122.2  463.41   131.9  463.42
   133.5  463.48   134.6  463.82   135.2  464.07   135.7  464.34   136.9   465.1
   137.8   465.6   138.1  465.74   138.4  465.87   138.8  466.01     140  466.18
   140.8  466.22     144  466.25     145  466.28   145.4   466.3   145.7  466.32
   146.5  466.37   149.8  466.66   151.3  466.74   154.4  466.68157.8846  466.75
#Mann= 1 ,-1,0
       0     .03       0
Bank Sta=34.08,75.63
XS Rating Curve= 0 ,0
XS HTab Starting El and Incr=461.11,0.28, 20 
XS HTab Horizontal Distribution= 5 , 5 , 5 
Exp/Cntr(USF)=0,0
Exp/Cntr=0.3,0.1

Type RM Length L Ch R = 1 ,4357.00*,64,64,64
XS GIS Cut Line=2
449725.4965696886211506.14824757449816.8326946916211386.03498729
Node Last Edited Time=Apr/10/2022 11:44:02
#Sta/Elev= 169 
       0  463.42   2.686 463.411   6.738 463.377    7.92 463.389  11.584 463.388
  12.738 463.382  16.811 463.401  19.032 463.399  20.277 463.386  23.051 463.348
  25.216 463.329  26.833 463.334  30.025 463.321  32.507  463.29  33.571 463.236
  33.808 463.212  35.267 463.004  35.463 462.979  36.172 462.852  36.567 462.784
  37.472 462.638  38.474 462.488  38.654 462.459  39.245  462.38  39.954 462.315
  40.467 462.277  41.137 462.216  42.806 462.184  44.539 462.126  45.037 462.118
  45.319 462.112  45.579 462.095  46.619 461.991  47.659 461.757  48.265  461.63
   48.82 461.513  49.132 461.453  49.825 461.325  50.711 461.196  51.645 461.069
  52.858 460.868  53.551 460.746  53.811 460.692   53.95460.6684  54.158 460.633
  54.612 460.568  55.371 460.454  55.804 460.419  56.844 460.372  59.963 460.359
  61.696 460.312   62.91  460.22  63.242 460.187  64.209 460.087  65.423 459.977
  66.722 459.943  71.753 459.918  74.261 459.915  76.836 459.927  77.381 459.926
   79.46 459.902    80.5  459.88   81.05  459.88   81.65 459.905   82.25  459.91
    83.4  459.88   84.15  459.88  85.224 459.907   85.82 459.929  86.655 460.006
  87.609 460.293  88.087 460.514   88.31460.6654  88.626  460.88  88.922 461.106
   88.97 461.144  89.487 461.559  89.518 461.585  90.434 462.169   90.52 462.244
   90.95 462.575   90.95 462.595  91.188 462.693  91.295 462.748  91.725 462.997
  91.811 463.036  92.155 463.281  92.381 463.425  92.739 463.625  93.335 463.936
  93.574 464.056  93.812 464.172  93.963 464.237   94.48 464.403   94.91 464.503
  95.943 464.671  96.373 464.716  97.579 464.805  98.009 464.825  98.439  464.84
  98.823 464.844  99.419 464.858 100.851 464.924 102.282 464.951 102.829 464.947
 104.429 464.923 104.723 464.922 105.584 464.927 107.889 464.963 109.113 464.973
 110.752 464.979 111.706 464.999 113.495 465.059 113.676 465.058 114.927 465.064
 115.165 465.062 115.642 465.055  116.12 465.042 116.344 465.031 116.358  465.03
 116.955 465.021 118.625 465.057 119.013 465.072 119.959 465.098 120.992 465.114
  122.37 465.076 122.628 465.053 123.489 464.893 123.747 464.829 124.436 464.578
 125.124 464.357 125.296 464.313 126.243 464.124 126.588 464.076 126.846 464.057
 127.104 464.029 127.276 464.025 127.333 464.024 127.707 464.021 127.965 464.016
 130.434 464.007 130.719 464.009 132.462 464.036 139.069 464.103 140.447 464.146
 141.393 464.325  141.91 464.455  142.34 464.594 143.373 464.984 144.148 465.242
 144.406 465.314 144.511 465.341 144.664 465.383 145.009 465.458 146.042 465.561
  146.73 465.592 148.089 465.622 149.485  465.65 150.346 465.678  150.69 465.693
 150.948 465.706 151.549 465.737 151.637 465.741 154.478 465.932 155.008 465.956
 155.769 465.992 157.513     466 158.437 466.005 161.437  466.09
#Mann= 2 ,-1,0
       0     .03       0 161.437     .03       0
Bank Sta=53.95,88.31
XS Rating Curve= 0 ,0
XS HTab Starting El and Incr=460.03,0.29, 22 
XS HTab Horizontal Distribution= 5 , 5 , 5 
Exp/Cntr=0.3,0.1

Type RM Length L Ch R = 1 ,4293    ,96.2,96.2,96.2
XS GIS Cut Line=2
449750.1031056486211525.33300442449889.4011227756211436.91629893
Node Last Edited Time=Apr/10/2022 11:44:02
#Sta/Elev= 84 
       0  462.82     3.1  462.81    14.7  462.67    19.4  462.69    23.4  462.67
    29.1  462.61    40.7  462.72    42.2  462.77    44.4  462.89    46.7  462.97
    49.4  462.98    51.4  462.94    52.3  462.95    52.6  462.93    53.8  462.78
      55  462.37    55.7  462.15    56.7  461.83    57.5  461.58    59.6  461.07
      61  460.66    61.8  460.41    62.1   460.3    62.5  460.18   63.79459.8483
    63.9  459.82    64.4  459.75    65.6  459.66    69.2  459.64    71.2  459.55
    72.6  459.37    74.1  459.11    75.5   458.9      77  458.84    85.7  458.82
    89.3  458.85    91.7  458.83    92.9   458.8      94   458.8    95.2  458.85
    96.4  458.86    98.7   458.8   100.2   458.8   101.1  458.85   101.6  458.89
   102.3  459.04   103.1  459.61  103.32 459.852   103.5  460.05   104.2  461.18
   104.7     462   105.9  463.34   105.9  463.38   106.1  463.43   107.1  463.95
   107.4  464.05   107.9  464.17   108.1  464.21   108.3  464.24   112.5  464.36
     113  464.39   114.2  464.53   115.4  464.59   117.2  464.57   120.1  464.61
   122.5   464.6   123.3  464.63   124.8  464.73     126   464.7   126.2  464.69
   126.6  464.66     127  464.62   127.2  464.59   127.7  464.53   129.1  464.49
   136.4  464.59     139   464.6   140.7  464.66   150.8  464.89   153.8  465.01
   156.7  465.11   159.6  465.22   161.7   465.3164.9892  465.43
#Mann= 1 ,-1,0
       0     .03       0
Bank Sta=63.79,103.32
XS Rating Curve= 0 ,0
XS HTab Starting El and Incr=458.95,0.3, 22 
XS HTab Horizontal Distribution= 5 , 5 , 5 
Exp/Cntr(USF)=0,0
Exp/Cntr=0.3,0.1

Type RM Length L Ch R = 1 ,4196    ,60.15,60.15,60.15
XS GIS Cut Line=2
449788.4726193476211589.56023387449946.1212734616211540.34716195
Node Last Edited Time=Apr/10/2022 11:44:02
#Sta/Elev= 124 
       0  461.26     3.3  461.26     6.5   461.2    10.5  461.22    11.6  461.21
    14.7  461.14    25.2  461.12    28.3  461.14    30.4  461.19    32.5  461.26
    34.6  461.29    37.7  461.26    39.8  461.27    40.9  461.27      44  461.19
    46.1  461.17    47.2  461.18    49.3  461.23    51.4  461.23    56.6  461.13
    58.7  461.12    60.7  461.13    61.8  461.15      64  461.22      65  461.28
      67  461.32    68.1  461.31    71.3  461.18    71.5  461.16    71.9  461.13
    73.4  460.98      74  460.78    74.4  460.66    75.1  460.33    76.7  459.55
    77.6  459.12   77.64 459.102    78.6  458.67    79.1   458.5    79.6  458.34
    79.9  458.29    80.7   458.2    85.9  458.25    88.3  458.25    92.2  458.19
    97.5   458.2    98.5  458.22    98.9   458.4    99.1  458.44    99.6   458.7
  100.05 459.105   100.6   459.6   100.9  459.92   101.6  460.94     102  461.35
   102.3  461.74   102.7  462.13   103.5  462.53   103.7  462.63   103.9  462.64
   104.7  462.67   104.8  462.68   105.5  462.74   105.8  462.79   106.9  462.96
   107.1     463   107.9  463.25   108.1   463.3   108.6  463.53     109  463.62
     110  463.59   110.2  463.52     111  463.21   111.1   463.2   112.1     463
   114.2  462.99   117.4  463.05   118.2  463.04   119.5  462.94   119.8  462.83
   120.5  462.58   121.4     462   121.5  461.93   121.8  461.86   122.2  461.74
   122.6  461.63     123  461.63   123.3  461.67   124.7  461.75   125.7  461.77
   127.8  461.86   129.9     462     132  462.19   132.5  462.22   132.6  462.23
   133.1  462.26   136.2  462.38   140.4  462.32   141.4  462.35   142.2   462.4
   142.5  462.42   143.1  462.45   143.5  462.47   143.8  462.48   144.5  462.48
   144.6  462.48   145.4   462.5   145.6  462.51   146.2  462.52   146.7  462.52
     147  462.53   147.9  462.53   148.6  462.55   151.2  462.52   151.8  462.52
   151.9  462.52     153  462.55     155  462.57   157.2  462.57   158.2  462.59
   158.3   462.6   158.9  462.62   159.7  462.64165.1515  462.68
#Mann= 1 ,-1,0
       0     .03       0
Bank Sta=77.64,100.05
XS Rating Curve= 0 ,0
XS HTab Starting El and Incr=458.34,0.26, 20 
XS HTab Horizontal Distribution= 5 , 5 , 5 
Exp/Cntr(USF)=0,0
Exp/Cntr=0.3,0.1

Type RM Length L Ch R = 1 ,4136.00*,60.15,60.15,60.15
XS GIS Cut Line=2
449804.3208967456211636.68800613449960.7183710646211614.16676983
Node Last Edited Time=Apr/10/2022 11:44:02
#Sta/Elev= 204 
       0  460.67   2.928 460.649   4.926 460.614   5.767 460.609   6.072 460.611
   7.218 460.639   9.316 460.672   9.509 460.674  10.292 460.668    11.8 460.646
  12.946 460.621  13.042 460.618  15.237 460.568  16.383 460.526  17.529 460.505
   19.82 460.488  21.997  460.45  22.357 460.446  24.403 460.432  25.108 460.438
  26.694 460.466  26.971 460.473  28.834 460.529  30.245 460.556  30.697 460.563
  33.448 460.563  34.713 460.573  35.311 460.574  36.287 460.573   38.15 460.543
  39.037 460.532    40.9 460.525  41.876 460.531  43.739  460.56  45.602 460.563
  49.607 460.527  50.216 460.517  52.079 460.502  53.853 460.498  54.829 460.503
  56.781 460.528  57.668 460.554  58.429 460.559  59.443 460.559  60.418 460.543
  63.257 460.447  63.435 460.435  63.469 460.434   63.79 460.419  64.615 460.368
  65.121 460.311  65.653 460.181  65.761 460.157  66.008 460.086  66.629 459.848
  66.906 459.739  68.048 459.226  68.847 458.812  69.198 458.636   69.45458.5213
  69.734 458.392  70.178 458.218  70.343 458.155  70.621 458.066  70.887 458.004
  71.489 457.882  71.597 457.864  72.635 457.761  73.666 457.721  74.811 457.687
  76.186  457.67  76.211  457.67   78.34 457.657  79.509  457.64  80.654  457.61
    81.8  457.59    83.3 457.605    84.8  457.59    85.3  457.59  86.275 457.621
   87.25 457.682  88.225 457.738  88.615 457.763    89.2 457.789  90.175 457.805
   90.74 457.793   91.15 457.789  91.766 457.959  92.125 458.134  92.177 458.177
  92.382 458.324   92.61458.5218  92.895 458.769  93.099 458.984  93.392 459.288
  93.922 459.768  94.074 459.919   94.23 460.063  94.948 460.864  95.049 460.956
  95.359 461.196  95.667 461.476  96.024 461.745  96.077 461.778  96.219 461.835
  96.898 462.065  96.999   462.1  97.104 462.121  97.309 462.119  97.974 462.107
   98.13 462.084  98.233 462.071  98.949  461.98  99.144 461.976  99.259 461.975
  99.924 461.965 100.388 461.999 100.593 462.018 101.414 462.141  101.62 462.165
 101.679 462.178 102.133 462.282 102.543 462.329  103.57 462.319 103.775 462.285
 104.596 462.134 104.699  462.13 105.725 462.025 105.774 462.025 106.748 462.013
 107.723  461.92 107.881 461.891 108.698 461.747 109.673 461.686 111.165 461.741
 111.986 461.758 112.598 461.752 113.321 461.736 113.573 461.695 113.628 461.685
 114.347 461.564 114.548 461.502 115.271 461.271 115.373 461.235 115.681 461.198
 116.092 461.136 116.205  461.12 116.502 461.077 116.913 461.073 117.221  461.09
 118.658 461.116  118.74 461.116 119.423 461.122 119.684 461.128  121.84 461.195
 122.347 461.216 123.995 461.256 125.272 461.301  126.15 461.342 126.664 461.359
 126.766 461.364 127.279 461.381 128.782 461.413 130.461  461.46 132.097 461.464
 134.047  461.45 134.772 461.456 135.021 461.464 135.799 461.503 135.996 461.516
  136.62 461.541 136.928 461.555 137.543 461.576 137.946  461.59 138.262 461.595
  138.98 461.595 139.083 461.595 139.904 461.605 139.994 461.607 140.109 461.608
 140.725 461.605 141.238 461.598 141.546 461.599  142.47 461.586 142.528 461.586
 143.189 461.582 143.796 461.567 145.857 461.552 146.473 461.552 146.576 461.551
 147.696 461.565 148.475 461.564  148.67  461.56 149.645 461.549 149.757 461.549
  151.79  461.54 152.016  461.54 153.042 461.548 153.145 461.553  153.76 461.563
 154.582 461.572 155.885 461.575 158.907   461.6 160.177 461.605
#Mann= 2 ,-1,0
       0     .03       0 160.177     .03       0
Bank Sta=69.45,92.61
XS Rating Curve= 0 ,0
XS HTab Starting El and Incr=457.74,0.24, 20 
XS HTab Horizontal Distribution= 5 , 5 , 5 
Exp/Cntr=0.3,0.1

Type RM Length L Ch R = 1 ,4076    ,90.7,90.7,90.7
XS GIS Cut Line=2
449820.1691741436211683.81577839449975.3154686686211687.98637771
Node Last Edited Time=Apr/10/2022 11:44:02
#Sta/Elev= 90 
       0  460.08     4.3  460.01     5.3  460.02     6.3  460.07     8.3  460.13
    10.3  460.12    11.3   460.1    13.3     460    14.3  459.92    15.3  459.88
    17.3  459.85    19.2  459.78    21.3  459.73    23.3  459.75    26.4  459.83
    30.3  459.88    33.3  459.87    43.3  459.91      51  459.82    55.4  459.71
    56.4   459.7    57.4  459.57    58.4   459.3    59.4   458.9    60.4  458.33
   61.02458.0448    61.4  457.87    62.4  457.55    63.4  457.31    64.3  457.22
    65.3  457.14    66.5  457.09    69.4  457.05    70.4  457.01    71.4  456.99
    74.4  457.02    77.4  456.99    78.4  456.99    79.4  457.05    80.4  457.17
    81.4  457.28    81.8  457.33    82.4  457.38    83.4  457.41    84.4  457.37
    85.4  457.89   85.53 458.046    86.4  459.09    86.7  459.44    87.4  460.08
    88.4  460.87    89.4  461.41    89.6  461.47    90.4  461.62    91.4  461.55
    92.4  461.22    92.6  461.18    93.4  461.04    95.2  461.03    98.3  461.06
    99.4  461.05   100.4  461.03   101.4  460.85   102.4  460.49   103.4  460.35
   106.4  460.51   107.4  460.54   108.4  460.55   110.1  460.53   112.7  460.48
   113.4  460.48   116.4  460.54   119.4  460.49     123  460.51   126.4  460.57
   128.4  460.57   129.4   460.6   130.4  460.67   132.4  460.71   134.5  460.71
   137.1  460.64   138.4  460.59   142.4  460.58   143.2  460.57   143.4  460.56
   144.4  460.53   146.6  460.51   150.8   460.5   153.9  460.53155.2023  460.53
#Mann= 1 ,-1,0
       0     .03       0
Bank Sta=61.02,85.53
XS Rating Curve= 0 ,0
XS HTab Starting El and Incr=457.14,0.22, 20 
XS HTab Horizontal Distribution= 5 , 5 , 5 
Exp/Cntr(USF)=0,0
Exp/Cntr=0.3,0.1

Type RM Length L Ch R = 1 ,3985    ,,,
XS GIS Cut Line=2
449840.1880508566211769.73012429449914.4247186666211793.91960032
Node Last Edited Time=Apr/10/2022 11:44:02
#Sta/Elev= 51 
       0  459.76     5.6  459.51     8.8  459.34    10.8  459.29    11.9  459.29
    12.9  459.32      14  459.21    15.1  458.96    16.1  458.51    17.2  457.89
    18.2  457.42   18.35457.3682    19.3  457.04    20.3  456.71    21.4  456.42
    22.4  456.25    23.5   456.2    24.5  456.17      27   456.2      31   456.2
      34  456.24      35  456.39    35.8  456.56    36.1  456.66    37.1  456.95
    37.3  456.99    38.9  457.15    40.3  457.22    40.5  457.23    41.3  457.32
    41.9457.3691    42.4  457.41    43.4  457.46    45.6  457.49    48.7  457.63
    52.4  457.86    56.1  458.11    61.1  458.38    63.5  458.46    65.5   458.5
    66.6   458.8    67.6   459.4    68.7  459.72    69.1  459.74    69.7  459.74
    70.7  459.66    70.8  459.65    71.8  459.42    72.9  459.31      74  459.28
78.07825  459.23
#Mann= 1 ,-1,0
       0     .03       0
Bank Sta=18.35,41.9
XS Rating Curve= 0 ,0
XS HTab Starting El and Incr=456.32,0.17, 20 
XS HTab Horizontal Distribution= 5 , 5 , 5 
Exp/Cntr(USF)=0,0
Exp/Cntr=0.3,0.1

River Reach=Gave            ,Cauterets       
Reach XY= 11 
        449157.2       6211441.8        449238.4       6211471.1
        449273.6       6211500.8        449314.1       6211565.4
        449354.4        6211610.        449394.5       6211629.6
        449459.5       6211639.1        449585.8        6211693.
        449680.9       6211712.2         449736.       6211731.7
     449846.5292     6211820.637
Rch Text X Y=449329.5323,6211536.50925
Reverse River Text= 0 

Type RM Length L Ch R = 1 ,4457.12 ,92.4,92.4,92.4
XS GIS Cut Line=2
449157.0701995686211507.75012384449199.6103125836211390.97334302
Node Last Edited Time=Apr/10/2022 11:44:02
#Sta/Elev= 76 
       0  477.42     1.3  477.38     2.9  477.38     7.6  477.31     8.3  477.31
     9.8  477.35    10.9  477.42      12  477.51      13  477.54    15.2  477.51
    16.9  477.52    18.8  477.55    21.6  477.64    23.2  477.67    26.9  477.69
    30.1  477.75    31.1  477.75    35.4  477.78    37.2  477.83    38.8  477.97
    39.6  477.99    39.9  477.92    40.3  477.82    40.7  477.64    41.8  476.74
    42.2  476.45   42.66 476.013    42.8  475.88    43.2  475.66    43.4  475.51
    43.9  475.33      45   475.1      46  475.08    47.1  475.08    50.9  475.17
    57.5  475.17    58.8  475.19      59  475.24    59.9  475.52    60.6   475.9
   60.79476.0164    62.2  476.88    63.1  477.35    63.7  477.62    64.1  477.76
    65.2  477.98    65.5  478.01    66.3  478.06    67.3  478.11    68.4  478.18
    71.7  478.45    74.8  478.67    75.8   478.7    76.2  478.71    76.9   478.7
      78  478.65      79  478.63    80.9  478.65    83.2  478.79    84.3  478.88
    86.5  479.02    88.4  479.12    89.7  479.16    93.4  479.24    96.5  479.23
   107.4   479.6     112   479.7   112.9  479.73   115.2  479.86   116.3  479.94
   116.8  479.99   116.9     480   117.3  480.05   120.5  480.47   121.4  480.55
124.2839   480.6
#Mann= 1 ,-1,0
       0     .03       0
Bank Sta=42.66,60.79
XS Rating Curve= 0 ,0
XS HTab Starting El and Incr=475.23,0.27, 20 
XS HTab Horizontal Distribution= 5 , 5 , 5 
Exp/Cntr(USF)=0,0
Exp/Cntr=0.3,0.1

Type RM Length L Ch R = 1 ,4457.11*,92.4,92.4,92.4
XS GIS Cut Line=2
 449212.539170466211553.20965638449285.524658475 6211455.6176324
Node Last Edited Time=Apr/10/2022 11:44:02
#Sta/Elev= 145 
       0     475   1.535 475.013   1.648 475.015   3.423 475.023   3.817 475.023
   4.771 475.026   7.026 474.972   8.971 474.967   9.715  474.97   9.798  474.97
  10.929 474.978  11.568 474.976  12.867 474.994  14.165 475.022  15.346 475.021
  15.787 475.012  17.943 474.987  18.996 474.983  19.949 474.982  20.818 474.986
  22.192 475.009  23.333 475.036  25.497 475.092  25.762 475.097  27.386 475.147
  28.798 475.183  30.099 475.211  31.053 475.218  31.754  475.22  33.222 475.232
  34.263  475.17  34.436 475.151  35.531 474.819  36.171  474.62  36.431   474.5
  36.712 474.422  36.952 474.356  37.472 474.297  37.559 474.283  38.166 474.224
    38.6 474.201  39.727 474.199  40.682 474.202  41.787 474.248   43.11 474.316
  43.912 474.338  44.325  474.36  45.192 474.382  45.801 474.385  46.233 474.375
  46.745 474.354  47.099 474.301  47.572 474.227  47.621 474.216  48.044 474.108
   49.26473.6096  49.342 473.576  49.356 473.571  49.814 473.409  50.523 473.092
   50.57 473.079  50.995 472.982  51.231 472.908  51.785 472.826  51.821  472.82
   53.12 472.697    54.3  472.68   54.85  472.68  58.404 472.729   59.04  472.73
  61.081 472.735  63.767 472.765  64.577 472.784  65.056 472.799  65.594 472.813
  65.793 472.823   65.98 472.856  66.453 472.954  66.821 473.049  67.098 473.155
   67.42 473.289  67.476 473.312   67.85 473.477   68.11473.6108  68.602 473.864
  68.972 474.064  69.139 474.146  69.814 474.519  70.375 474.806  70.536  474.88
  70.749 474.994  71.503 475.336  71.718 475.424  71.778 475.455  71.825 475.477
  72.059 475.529  72.807  475.68  73.222 475.761  73.742 475.791  74.511 475.841
  74.771 475.854  75.908  475.92  77.857 476.016  78.593 476.048  80.757 476.132
  81.692 476.147  82.066 476.153  82.721 476.148   83.75 476.124  84.685 476.114
  85.469 476.119  86.462 476.117  88.585 476.169  88.613  476.17  89.642   476.2
  91.699 476.241  93.205 476.262  93.476 476.281  94.692 476.349  94.709  476.35
  96.213 476.508  97.717 476.585  98.153 476.594  99.973 476.607 101.052 476.613
 103.519 476.675 105.238 476.726 107.064 476.774 110.072 476.824 111.246  476.85
 115.014 476.909 115.549 476.912  116.39 476.922   117.7 476.955 118.542 476.984
  119.57 477.029 120.038 477.056 120.131 477.062 120.506 477.089 120.816 477.112
 123.072 477.275 123.498 477.301  124.34 477.334 125.328 477.334 127.037 477.275
#Mann= 2 ,-1,0
       0     .03       0 127.037     .03       0
Bank Sta=49.26,68.11
XS Rating Curve= 0 ,0
XS HTab Starting El and Incr=472.83,0.23, 20 
XS HTab Horizontal Distribution= 5 , 5 , 5 
Exp/Cntr=0.3,0.1

Type RM Length L Ch R = 1 ,4457.1  ,85.1,85.1,85.1
XS GIS Cut Line=2
449268.0081413526211598.66918891449371.4390043686211520.26192179
Node Last Edited Time=Apr/10/2022 11:44:02
#Sta/Elev= 74 
       0  472.58     1.9  472.65     4.4  472.67     5.5  472.69     8.1  472.61
    11.2  472.63    12.6  472.62    18.2  472.49    21.9  472.45      24  472.44
    26.9  472.49    29.7  472.55    33.2  472.69    34.7  472.74    35.8  472.75
    38.3  472.75    39.5  472.61    39.7  472.57    41.7  471.49      42  471.25
   42.42 471.047    42.6  470.96    43.2  470.84    43.3  470.81      44  470.69
    44.5  470.64    45.8  470.63    46.9  470.63    49.7  470.82    51.1  470.86
    52.1  470.84    53.3  470.77    54.9  470.63    56.9  470.41    58.3   470.3
    59.7  470.31    62.6  470.28    66.5  470.29    68.4   470.3    70.9  470.36
    72.1  470.42    72.6  470.44    73.4  470.51      74  470.63    74.3  470.71
    74.7  470.81    75.3  471.05    75.4  471.09    75.9  471.32    77.2  472.08
    78.1  472.75    78.3  472.88    78.4  472.97    79.7  473.44    80.9  473.52
    82.2  473.56    84.7  473.59    91.1   473.6      94  473.55    98.3  473.42
    99.7  473.54   101.1  473.82   102.5  473.94   104.6  473.98   107.9  474.03
   109.5  474.07   111.2   474.1     114  474.09   118.6  474.13   121.1   474.1
     124  474.13   126.1  474.14   128.2   474.1129.7908  473.95
#Mann= 1 ,-1,0
       0     .03       0
Bank Sta=42.42,75.3
XS Rating Curve= 0 ,0
XS HTab Starting El and Incr=470.43,0.19, 20 
XS HTab Horizontal Distribution= 5 , 5 , 5 
Exp/Cntr(USF)=0,0
Exp/Cntr=0.3,0.1

Type RM Length L Ch R = 1 ,4457.05*,85.1,85.1,85.1
XS GIS Cut Line=2
449359.7613262856211645.79696118449417.7326567666211553.62671631
Node Last Edited Time=Apr/10/2022 11:44:02
#Sta/Elev= 123 
       0 470.405   1.461 470.426   3.384 470.419    4.23 470.421   4.858 470.402
    6.23 470.367   8.615 470.364   9.287 470.357   9.692 470.356  12.145 470.323
  13.999 470.314  16.431 470.323  16.845 470.321   18.46 470.322  20.691 470.355
  20.717 470.355  22.844 470.376  25.536 470.434  26.575 470.453   26.69 470.455
  27.536 470.463  29.459  470.47  30.382 470.403  30.536 470.384  32.074 469.849
  32.291 469.738  32.305  469.73  32.767 469.584  33.228 469.524  33.305 469.509
  33.843 469.448  34.228 469.423  35.228 469.417  36.074 469.416  36.577 469.437
  38.006  469.51  38.228 469.515  39.149 469.512  39.305 469.507  39.434 469.498
  40.074 469.481  40.863  469.44  40.997 469.404  42.227  469.05  42.292  469.03
   42.71468.8071  43.721 468.268  43.766 468.257  44.292 468.133  44.843 467.993
   45.15 467.931  45.919  467.93   48.15   467.9   50.65 467.915    52.2 467.905
   52.65  467.91   53.65   467.9  54.692 467.936  55.734 468.028  56.881 468.134
  57.398 468.195  57.923 468.256  58.965 468.319  59.225 468.322  60.007  468.34
  61.628 468.351  61.883 468.357  62.781 468.358  63.261 468.357   64.03 468.373
  64.175 468.385  64.607 468.434  64.895 468.477  65.218 468.522   65.28 468.532
  65.953 468.698   66.34 468.806  66.433 468.832  67.302 469.129  67.683 469.269
   68.24 469.521  68.344 469.566  68.448 469.611  68.548 469.653   68.74 469.724
  68.836 469.772  69.386 469.893  70.086 470.036  71.239 470.095  71.262 470.095
  72.488 470.147  72.617 470.151  73.659 470.287  74.701 470.524  74.891 470.552
  75.743 470.676  76.785 470.762  77.827 470.802  81.043 470.842  83.038 470.847
   83.83 470.846  86.269 470.827  87.963  470.83  89.309 470.914  90.654 471.078
      92 471.162  93.563 471.206  94.018 471.216   97.19 471.284  98.728 471.325
 100.362 471.363 101.275 471.373 103.053 471.405 104.089  471.43 106.382   471.5
 107.474 471.527 109.877  471.56 110.654 471.579 112.664 471.644 113.468 471.667
 114.683 471.694 116.701 471.715  118.23  471.67
#Mann= 2 ,-1,0
       0     .03       0  118.23     .03       0
Bank Sta=42.71,66.34
XS Rating Curve= 0 ,0
XS HTab Starting El and Incr=468.05,0.19, 20 
XS HTab Horizontal Distribution= 5 , 5 , 5 
Exp/Cntr=0.3,0.1

Type RM Length L Ch R = 1 ,4457    ,72.1,72.1,72.1
XS GIS Cut Line=2
449451.5145112196211692.92473344449464.0263091656211586.99151083
Node Last Edited Time=Apr/10/2022 11:44:02
#Sta/Elev= 54 
       0  468.23     3.4  468.14     6.5  468.09     8.5   468.1    11.5  468.19
    14.5  468.22    18.6  468.17    22.6  468.21    25.6   468.2    26.6  468.22
    27.4  468.17    27.6  468.14    28.6   468.1    29.6  467.44   30.34466.4632
    30.6  466.12      31  465.91    31.6  465.56    33.7  465.52    38.7  465.55
    41.8  465.53    42.7  465.54    44.7  465.52    45.7  465.59    46.7  465.77
    47.8  465.98    48.8  466.22    49.8  466.34    50.8  466.36    52.6  466.34
    54.8  466.23    55.8  466.25    57.8  466.41   58.22 466.466    58.7  466.53
    58.8  466.54    58.9  466.55    59.8  466.61    61.6  466.67    62.9  466.74
    63.9     467    64.9  467.46    65.9  467.76    66.9  467.93    67.9  468.01
    72.9  468.13      76  468.18      83  468.44    90.4  468.65    93.1  468.76
    95.3  468.88    99.4  469.05   102.1   469.2106.6695  469.39
#Mann= 1 ,-1,0
       0     .03       0
Bank Sta=30.34,58.22
XS Rating Curve= 0 ,0
XS HTab Starting El and Incr=465.67,0.19, 20 
XS HTab Horizontal Distribution= 5 , 5 , 5 
Exp/Cntr(USF)=0,0
Exp/Cntr=0.3,0.1

Type RM Length L Ch R = 1 ,4308.00*,72.1,72.1,72.1
XS GIS Cut Line=2
 449487.10362412 6211707.6608505449506.8444606246211603.11782762
Node Last Edited Time=Apr/10/2022 11:44:02
#Sta/Elev= 107 
       0 467.193   1.241 467.182   3.359 467.185    4.17 467.178   5.112 467.175
   7.972 467.184   8.179 467.187   9.713 467.201  10.297 467.173  10.425 467.162
  10.516 467.155  11.246  467.04  11.976 466.892  12.634 466.726   12.78 466.685
  13.583 466.625  14.105 466.636  14.898 466.644  16.066 466.664   16.65 466.684
  17.234  466.71  17.784  466.74   18.33 466.763  18.987 466.795  19.498 466.812
  19.717 466.817  20.667 466.818  22.813 466.788  24.391 466.785  27.604 466.749
  27.719 466.749  29.795  466.72  31.329 466.677  31.399 466.674  32.625 466.641
  33.373 466.588  33.606 466.569  33.852 466.538  34.396 466.501  35.078 466.474
  35.126 466.456  36.305 466.046  36.733 465.743   36.89465.6299  37.531 465.168
  38.022 465.027  38.266 464.949  38.758 464.784  38.996 464.778    39.8 464.749
   40.53 464.712  41.333  464.69  44.252 464.711   45.47 464.715  48.034 464.699
  48.779 464.705  50.433  464.69  51.345 464.751  51.924 464.836  52.256 464.896
  53.042 465.043  53.258 465.096  53.787 465.243  54.169 465.351  54.284 465.373
   55.08  465.57   55.42465.6284  55.651 465.668  55.991 465.709  56.893 465.796
  57.632 465.821  57.762 465.822  58.259 465.817  59.501 465.798  59.636 465.794
  60.547 465.812  61.613 465.879   62.37 465.924   63.19 466.005  63.281 466.012
  63.372 466.018  64.192 466.059  64.843 466.076  65.832 466.109  67.017 466.166
  67.928 466.348  68.839 466.662   69.75 466.871  70.661 466.992  71.573 467.054
  72.669 467.083  76.128 467.158  76.644 467.166  78.953 467.218  85.331 467.459
  85.712 467.471   88.32 467.545  89.687 467.584  92.074  467.64  93.041 467.672
  94.534 467.726  96.539 467.818  99.003 467.908 100.274 467.956 102.735 468.074
 104.842 468.154 106.898  468.24
#Mann= 2 ,-1,0
       0     .03       0 106.898     .03       0
Bank Sta=36.89,55.42
XS Rating Curve= 0 ,0
XS HTab Starting El and Incr=464.84,0.17, 21 
XS HTab Horizontal Distribution= 5 , 5 , 5 
Exp/Cntr=0.3,0.1

Type RM Length L Ch R = 1 ,4159.00*,72.1,72.1,72.1
XS GIS Cut Line=2
449522.6927370216211722.39696756449549.662612083 6211619.2441444
Node Last Edited Time=Apr/10/2022 11:44:02
#Sta/Elev= 107 
       0 466.157   1.471 466.161    3.98 466.212    4.94 466.216   6.056 466.223
   9.445 466.278    9.69 466.284  11.506 466.306  12.198 466.246  12.351 466.223
  12.458 466.207  13.323  465.96  14.188 465.646  14.967 465.298   15.14 465.213
  16.092 465.072   16.71 465.082  17.649 465.092  19.033 465.122  19.725 465.157
  20.417 465.205  21.069  465.26  21.715 465.312  22.494 465.383  23.099 465.421
  23.359 465.434  24.483 465.444  27.026 465.406  28.896 465.388  32.702  465.29
  32.838 465.287  35.298 465.235  37.114 465.153  37.197 465.148   38.65 465.063
  39.537 464.994  39.813 464.969  40.103 464.936  40.748 464.881   41.22464.8617