Geom Title=moodle
Program Version=6.00
Viewing Rectangle= 448528.923065319 , 450137.266544907 , 6215367.972 , 6211362.228 

Junct Name=amont           
Junct Desc=, 0 , 0 ,-1 ,-1
Junct X Y & Text X Y=449846.5292,6211820.637,449846.5292,6211820.637
Up River,Reach=Gave            ,Gavarnie        
Up River,Reach=Gave            ,Cauterets       
Dn River,Reach=Gave            ,Pau_amont       
Junc L&A=0,0
Junc L&A=0,0

River Reach=Gave            ,Gavarnie        
Reach XY= 13 
        449687.3       6211401.5        449788.5       6211435.6
     449818.6908      6211465.31     449818.6908      6211465.31
        449818.8       6211475.3        449833.9       6211495.2
        449869.7       6211590.8        449875.1       6211650.6
        449870.5       6211690.6         449856.       6211750.7
        449851.3       6211790.7     449846.5292     6211820.637
     449846.5292     6211820.637
Rch Text X Y=449727.1073,6211506.28425
Reverse River Text= 0 

Type RM Length L Ch R = 1 ,4267    ,52.85,52.85,52.85
XS GIS Cut Line=2
449733.1018546836211536.99514907449952.8707589056211459.59226456
Node Last Edited Time=Apr/20/2022 20:03:45
#Sta/Elev= 146 
       0  462.95     2.3  462.93     8.9  462.92    17.4  462.75    22.7  462.72
      29  462.62    31.3  462.56    35.4  462.48    39.9  462.46    48.1  462.35
    50.1  462.36    55.6  462.33    58.7  462.31      63  462.26    65.8  462.28
    67.7  462.33    69.3  462.34    71.5  462.39    79.1  462.67    82.1  462.75
    83.8  462.72    84.2   462.7    85.4  462.55    86.3  462.29    86.6  462.21
    86.9  462.12    88.8  461.56    93.7  460.17    94.8  459.83    95.2 459.766
    95.8  459.67    96.4  459.62    97.9  459.53      99  459.53   101.1  459.43
   102.2  459.21   102.6  459.12   102.9  459.04   103.3  458.97   103.4  458.95
   103.8  458.86   104.2   458.8   104.3  458.79   106.4  458.71   109.7  458.67
   111.7  458.67     116  458.61   117.7  458.61   120.2  458.64   122.3  458.64
     123  458.71   123.8  458.87   124.5     459   124.6  459.11   124.9   459.5
  125.12 459.764   125.4   460.1   125.5  460.32   126.2   461.5   126.6  462.28
   127.6  463.53   127.7  463.56   128.5   463.7   128.7  463.73   129.1  463.82
   129.3  463.85   129.8  463.92   130.9  463.98     134  464.02   137.1  464.15
   139.5   464.1   142.5  464.09   145.8  464.05     146  464.05   146.5  464.03
   147.8  463.92   148.1   463.9   148.8  463.89     149  463.89   149.7   463.9
   151.2  463.95   153.1  463.95   153.6  463.97   153.7  463.97   155.9  464.01
   156.3  464.02   156.7  464.03     157  464.04   158.6  464.09   165.1  464.23
   165.4  464.24   165.8  464.25   166.1  464.27   167.7  464.33   171.6  464.51
   171.7  464.51   173.1  464.55   176.4  464.63   176.6  464.64   177.9  464.69
   181.7   464.8   184.9   464.9   188.1  465.04   191.2  465.13   194.1  465.21
   198.3  465.35   198.7  465.37   199.1  465.41   199.5  465.46   199.7  465.49
   200.8   465.7   201.1  465.77   201.4  465.82   202.2  465.95   202.8  466.05
   202.9  466.07   203.8  466.14     204  466.16   208.2  466.22   209.2  466.26
   209.3  466.27   213.2  466.25   215.2  466.27   215.5  466.28   215.6  466.28
   219.9  466.43   220.2  466.44   220.8  466.45   220.9  466.46   221.8  466.47
     222  466.48   222.4  466.49   222.6   466.5   223.1  466.52   224.1  466.55
   227.3  466.72   228.1  466.78   228.4  466.79   228.9  466.82     229  466.82
   229.4  466.85   229.6  466.86   230.3  466.89     232     467   232.6  467.04
     233  467.05
#Mann= 3 ,0,0
       0     .01       0    95.2     .03       0  125.12     .01       0
Levee=-1,83.8,462.75,0,,,,
Bank Sta=95.2,125.12
XS Rating Curve= 0 ,0
XS HTab Starting El and Incr=458.76,0.3, 28 
XS HTab Horizontal Distribution= 5 , 5 , 5 
Exp/Cntr=0.3,0.1

Type RM Length L Ch R = 1 ,4214.00*,52.85,52.85,52.85
XS GIS Cut Line=2
449746.2327011626211572.93220259449981.2057434126211524.55539977
Node Last Edited Time=Apr/20/2022 20:03:45
#Sta/Elev= 292 
       0 462.295   1.002 462.216   1.913 462.198   2.549  462.23   2.824 462.245
   3.735 462.249   6.742 462.162   9.863 462.115  12.937 462.042  17.492 461.891
  18.403 461.868  19.283 461.848  24.143 461.768  25.156 461.755  25.692 461.746
  30.247 461.699  32.138 461.689  34.686 461.665  34.893 461.663   39.23 461.625
   40.36 461.623  43.093 461.587  44.217 461.568  46.737 461.515  47.921 461.498
  53.114 461.481  53.304 461.482   55.52 461.508  57.214 461.521  59.492 461.555
  61.496  461.59  61.616 461.595  62.225 461.618  63.136 461.621  64.138 461.663
  64.867 461.686  65.051 461.693  66.142 461.734  66.598 461.767  66.871 461.775
  67.418 461.798  68.693 461.851  69.816 461.888  70.516 461.917  71.427 461.925
  72.338 461.913  72.919 461.892   73.34  461.88  75.025 461.788  75.071 461.785
  75.982 461.708  76.798 461.656  77.804   461.6  78.715 461.565  79.236 461.559
  80.537 461.552   83.27 461.557  86.003 461.578  87.658 461.586  90.983 461.587
  92.867  461.55  93.292 461.535   93.31 461.535   94.64 461.449  95.114 461.383
  95.637 461.312   95.97  461.27  96.302 461.224  98.408 460.932   99.76 460.752
 100.763 460.609 101.582 460.484 101.765  460.45 102.494 460.322 102.767 460.262
 103.405 460.125 103.838 459.977 104.316 459.808 105.057 459.453 105.227 459.383
   105.5 459.288 105.954 459.163 106.409 459.061  106.53 459.035 107.544 458.868
 108.002  458.81 108.377 458.787 109.474 458.686 109.968 458.675   110.8 458.574
 110.946 458.553 111.103 458.529 111.331 458.489 111.633 458.453 111.709 458.442
 112.012 458.396 112.315 458.365 112.391  458.36 112.418 458.359  113.89 458.297
 113.981 458.295  116.48 458.264 117.994 458.258  121.25 458.215   122.1 458.215
 124.643 458.243 125.148 458.251 126.339 458.265 127.707 458.269 128.034 458.283
 128.561 458.311 129.536 458.403 129.729  458.42 129.814 458.446 130.389 458.588
 130.492 458.651 130.511 458.668 130.577  458.73 130.877 459.031 131.145  459.29
 131.433 459.576 131.467 459.626 131.535 459.738 132.254 460.723 132.441 461.002
 132.665 461.363 133.513 462.436 133.692 462.621 133.795 462.679     134 462.782
 134.487 462.969 134.617 462.983 134.822 463.002 135.233 463.055 135.438 463.075
 135.461 463.077 135.851 463.133 135.952 463.148 136.046 463.158 136.435 463.198
 137.082 463.285  137.41 463.322 137.604 463.333 138.092 463.351 138.384 463.358
 139.163 463.338 139.358 463.334 140.266  463.27 140.332 463.266 141.307 463.181
 142.281 463.161  143.45 463.198 145.915 463.201 147.152 463.213  147.64 463.192
 148.127 463.176 148.711  463.12 148.996 463.094 149.101 463.084 149.393 463.028
 150.075 462.919  151.05 462.688 152.024 462.622 152.121 462.632 152.386 462.657
 152.591 462.678 152.901 462.704 152.998 462.707 153.096  462.71 153.778 462.717
 153.972 462.719  154.44 462.701 154.748 462.692 155.467 462.689  155.57 462.689
 155.672  462.69 155.824 462.691 156.391 462.704 157.932 462.754 158.754 462.768
 159.818 462.785 159.884 462.786 160.397   462.8   160.5 462.801 161.182 462.811
 162.741  462.84  162.76  462.84  163.17 462.846 163.581 462.852 163.889 462.858
 165.533 462.887 168.684 462.928 172.209 462.956 172.517  462.96 172.928 462.964
 173.236 462.973  174.53 462.994 174.879     463 178.427  463.08 178.885 463.092
 178.988 463.092 180.426 463.118 182.324 463.147 183.298 463.169 183.815  463.18
 184.021 463.187 185.247 463.223 185.356 463.225 185.734  463.23 186.221 463.232
 186.611 463.238 186.806  463.24 187.195 463.246 188.949 463.281 189.144 463.283
 189.259 463.285 189.339 463.286 190.021 463.312 190.118 463.313 192.067 463.348
 192.546 463.353  194.99 463.397 195.833 463.408 199.017 463.426 201.995 463.441
 202.686 463.446 206.309 463.523  206.72 463.535 206.778 463.538 207.131 463.555
 207.542  463.58 207.747 463.595 208.877 463.714 209.185 463.753 209.493 463.782
 209.701 463.801 210.315 463.856 210.931 463.913 211.034 463.924 211.958 463.968
 212.164  463.98 212.624 463.988 216.478 464.082 217.496  464.12 217.607 464.126
   221.1 464.141 221.613 464.147 222.952 464.172 223.341 464.178 223.667 464.183
 223.828 464.188 223.926 464.189 223.976 464.191 224.078 464.192 224.316 464.199
 227.044 464.285 228.213  464.33 228.495 464.352 228.803 464.376 229.187 464.403
 229.284 464.409 229.419 464.428 229.522 464.448 229.577 464.455 230.161 464.538
 230.446 464.618 230.652 464.676 231.038  464.78 231.063 464.784 231.233 464.814
 231.268 464.824  231.33 464.841 231.782 464.937 232.207 465.026 232.809 465.132
 232.889 465.147 233.181  465.19 234.156  465.31 236.095  465.37 236.917 465.392
 237.079 465.393 237.225 465.392 237.371 465.394 237.739 465.399 237.842 465.398
 238.252 465.406 238.345 465.407 238.458 465.408 239.177 465.413 240.923 465.444
 241.539 465.456  241.95 465.455
#Mann= 3 ,0,0
       0     .01       0   105.5     .03       0 131.145     .01       0
Bank Sta=105.5,131.145
XS Rating Curve= 0 ,0
XS HTab Starting El and Incr=458.36,0.3, 24 
XS HTab Horizontal Distribution= 5 , 5 , 5 
Exp/Cntr=0.3,0.1

Type RM Length L Ch R = 1 ,4161    ,61.845,61.845,61.845
XS GIS Cut Line=2
449759.3635476416211608.86925611450009.5407279186211589.51853498
Node Last Edited Time=Apr/20/2022 20:03:45
#Sta/Elev= 151 
       0  461.64     1.1  461.49     2.1  461.46     3.1  461.56     4.1  461.57
     7.4   461.4    14.2  461.22    19.2     461    20.2  460.97    26.5  460.81
    28.2  460.78    33.2  460.75    38.3  460.77    44.3  460.77    47.3  460.71
    51.3   460.6    52.6  460.58    58.3  460.61    62.8  460.69    65.3  460.77
    67.5  460.85    68.3  460.91    69.3  460.92    70.4  461.01    71.2  461.06
    72.6  461.17    73.1  461.24    73.4  461.26      74  461.31    75.4  461.43
    77.4  461.57    78.4  461.58    79.4  461.55    80.5  461.47    82.4  461.24
    83.4  461.08    85.4  460.84    86.4  460.75    88.4  460.67    91.4  460.59
    94.4  460.54   102.4  460.37   104.4  460.34   109.5  460.29   110.6  460.26
   111.5  460.22   111.7   460.2   112.5  460.13   112.8  460.08   113.5  459.97
   114.5  459.58   115.5  458.96   115.8  458.81   116.5  458.46   117.5  458.09
   118.5  457.91   119.5  457.94   120.5  457.93   121.5  457.88   126.5  457.82
   129.5  457.85   131.5  457.89   133.5   457.9   135.5  457.94   135.6  457.98
   136.4  458.21   136.5  458.28  137.17 458.816   137.5  459.08   138.5  460.15
   139.6  461.56   140.1  461.97   140.6  462.26   141.6   462.3     142  462.36
   142.2  462.39   142.6  462.45   143.6  462.66   143.8  462.68   144.3  462.71
   144.6  462.72   145.4  462.67   145.6  462.66   146.6   462.5   147.6   462.3
   148.6  462.22   153.6  462.33   154.1  462.29   154.6  462.26   155.2  462.15
   155.6  462.08   155.9  461.97   156.6  461.76   157.6  461.31   158.6  461.19
   158.7  461.21   159.5  461.37   159.6  461.38   159.7  461.39   160.4  461.46
   160.6  461.48   162.5  461.49   166.6  461.62   167.2  461.63     168  461.64
   169.6  461.67   175.7   461.7   181.7  461.67   185.7  461.67   189.7   461.7
   190.7  461.72   192.7  461.76   193.2  461.76   193.7  461.75   194.7  461.75
   196.5  461.77   196.9  461.77   197.6   461.8   197.7   461.8   199.7  461.81
   202.7  461.79   210.6  461.66   214.8   461.7   215.8   461.7   217.8  461.75
   220.8  461.81   225.8  461.98   229.5  462.03   231.4  462.08   231.8  462.09
   232.3   462.1   232.4   462.1   232.8  462.11   235.6  462.19   236.8  462.24
   237.8  462.36   237.9  462.37   238.2  462.45   238.8  462.62   239.7  463.07
   239.9  463.13     240  463.18   240.9  463.52   241.6  463.74   241.9  463.81
   242.9     464   244.9  464.02   245.9     464   246.2  463.99   247.2  463.96
   250.9  463.86
#Mann= 3 ,0,0
       0     .01       0   115.8     .03       0  137.17     .01       0
Levee=0,,,-1,143.6,462.7,,
Bank Sta=115.8,137.17
XS Rating Curve= 0 ,0
XS HTab Starting El and Incr=457.97,0.3, 20 
XS HTab Horizontal Distribution= 5 , 5 , 5 
Exp/Cntr=0.3,0.1

Type RM Length L Ch R = 1 ,4099.50*,61.845,61.845,61.845
XS GIS Cut Line=2
449778.7142687686211657.93715611450004.0119504546211672.45019695
Node Last Edited Time=Apr/20/2022 20:03:45
#Sta/Elev= 286 
       0     461    .925 460.908   1.765 460.878   2.606 460.913   3.447 460.903
   6.221 460.767    6.91 460.744   8.144  460.72  11.937 460.615   16.14 460.456
  16.981 460.431  17.028 460.429  18.386 460.404  22.087 460.313  22.277 460.309
  23.706 460.284   27.27 460.247  27.909 460.238  30.972 460.212  32.196  460.19
  32.699  460.18  33.563 460.175   37.24 460.175  38.622 460.159  39.762 460.143
  41.213 460.116  42.447 460.121  43.124 460.133  43.928 460.153  44.217 460.162
  45.039 460.198  46.272 460.301  47.506  460.34   48.74 460.329  49.009 460.323
  50.098 460.307  51.085 460.247  52.072 460.212  52.566 460.198  52.792 460.196
   54.17 460.196  54.893 460.184  56.391 460.162  56.743  460.15  57.415 460.141
  58.256 460.097  58.982  460.09   59.18 460.095  59.853 460.104  60.216 460.112
   61.03 460.176   61.45 460.225  61.702 460.247  62.207 460.296  62.807 460.356
  63.384 460.427  64.041 460.502  65.065 460.591  65.152 460.596  65.905 460.622
  66.509 460.629  66.746 460.635  67.671 460.636  67.866 460.631    69.1 460.642
  69.268 460.638  70.109 460.601  71.568 460.571   71.79 460.557   72.63 460.522
  72.925 460.518  74.312 460.449   75.64 460.394  76.834 460.326  79.356 460.196
   81.81 460.064  83.044 460.018  86.081 459.933  87.762 459.891   89.46 459.855
  90.694 459.823  91.928 459.811  92.049 459.798  92.974 459.689  93.162 459.665
   93.73 459.564  93.898 459.529  94.519 459.403  94.571  459.39  94.823 459.318
  95.412 459.154  95.753 459.011  96.252 458.796  96.987 458.379  97.093 458.327
  97.345  458.22   97.99 457.953  98.012 457.945  98.231 457.877  98.911 457.703
  99.832 457.562 100.419  457.54 100.753 457.534 101.622   457.5 101.674 457.497
 102.595 457.415 103.809 457.332 104.903 457.285 105.231 457.273   107.2 457.245
   107.7  457.26   108.8 457.245 111.927 457.266 112.963 457.267  113.49 457.269
 113.881 457.282 113.959 457.287  114.35   457.3 114.663 457.322 114.897 457.344
 115.738  457.42 115.913 457.435 116.773 457.527 117.555 457.573 118.513 457.603
 119.118 457.624 119.978 457.661 120.213 457.667  120.76 457.681 121.288 457.683
 121.427 457.703 122.401 457.801 122.537 457.816 122.675 457.852 123.027 457.956
 123.183 458.001 123.417 458.119 123.605 458.223  123.91 458.413 124.107 458.565
 124.653 459.051 124.832 459.222 125.198 459.614 125.847 460.289 126.309 460.654
 126.399 460.713  126.77 460.985  127.49 461.301 127.693  461.35 128.062 461.461
 128.246 461.516 128.582 461.617 128.616  461.62 129.538 461.725 129.723 461.735
 129.782 461.737 130.184 461.772 130.461 461.792 130.873 461.801 131.199 461.827
 131.384 461.843 131.965 461.863 132.307 461.832 133.165 461.727 133.229 461.712
 133.711 461.629 134.152 461.548 134.257 461.536 134.584  461.51 135.348 461.444
 136.439 461.382 136.658  461.38 137.312 461.368  137.64 461.362 138.766 461.372
 139.227  461.35 139.689 461.334 140.242 461.277 140.611 461.241 140.888 461.185
 140.914 461.181 141.534 461.075 142.457 460.844  143.38 460.777 143.472 460.786
 143.642 460.803  144.21 460.857 144.302 460.861 144.395 460.865 145.041 460.891
 145.225 460.899 145.498 460.896 146.589 460.854 146.978 460.823  147.68 460.777
 148.117 460.775 148.881 460.778 149.972 460.851 150.762 460.883 151.064 460.893
 151.315 460.894 152.054 460.895  153.53 460.903 157.284 460.895 159.159 460.898
 161.213 460.889 164.378 460.861 164.695  460.86 166.779  460.86 168.386 460.855
 172.077 460.857     173 460.864 174.846 460.878 175.307 460.877 175.768  460.87
 176.137 460.869 176.322 460.868 176.691 460.867 178.352 460.872 178.537 460.871
 178.721  460.87 179.367 460.883 179.459 460.883 180.312 460.882 181.305 460.885
 184.073 460.875  184.35 460.873 185.878 460.869 186.096 460.867 186.969 460.859
  190.68 460.796 191.363 460.788 193.736 460.792 195.239 460.803 196.028 460.805
 196.161 460.806  197.01 460.822 198.007 460.835 200.775 460.865 201.484 460.878
 204.977 460.912 205.389 460.914 208.803 460.888 209.669 460.887 210.556 460.897
 210.925 460.901 211.387 460.905 211.416 460.905 211.479 460.906 211.848 460.917
  212.07 460.923 212.398 460.934 212.834  460.95 213.926 460.967 214.432 460.968
 215.539 460.979 216.218 461.014 216.462 461.034 216.545 461.039 216.831  461.08
 216.872 461.086 217.309 461.154 217.385 461.165 217.746 461.268 217.964 461.332
 218.215   461.4   218.4  461.43 218.492 461.455 219.322 461.625 219.492 461.654
 219.819  461.71 219.968 461.735 220.245  461.77 221.168 461.865 221.784 461.868
 223.013  461.88 223.936 461.874 224.075 461.872 224.213  461.87 225.136 461.853
 226.804 461.826 226.913 461.824 227.459 461.816 227.786 461.811 228.332 461.808
  228.55 461.805
#Mann= 3 ,0,0
       0     .01       0  97.345     .03       0 123.605     .01       0
Levee=0,,,-1,130.7,461.95,,
Bank Sta=97.345,123.605
XS Rating Curve= 0 ,0
XS HTab Starting El and Incr=457.4,0.26, 21 
XS HTab Horizontal Distribution= 5 , 5 , 5 
Exp/Cntr=0.3,0.1

Type RM Length L Ch R = 1 ,4038    ,,,
XS GIS Cut Line=2
449798.0649898946211707.00505611449998.4831729896211755.38185892
Node Last Edited Time=Apr/20/2022 20:03:45
#Sta/Elev= 134 
       0  460.36     5.6  460.11     6.6   460.1    13.8  459.89    14.9  459.88
    17.9  459.81    22.1  459.74    25.1  459.66    26.5  459.59    27.2  459.58
    31.3  459.58    33.4  459.57    34.4  459.62    35.6  459.72    36.5  459.81
    37.5  460.01    38.5  460.08    39.5  460.05    40.6  459.98    41.4  459.84
    42.2  459.75    42.6  459.71    43.9  459.65    45.7  459.49    47.8  459.19
    48.8  459.13    49.8  459.21    50.9  459.34    51.9  459.52    52.8  459.62
    53.9   459.7      55  459.82      56  460.02      58  460.27    59.1   460.3
    61.3  460.16    66.3  459.65    67.3  459.59    72.5  459.39    73.5  459.34
    74.5  459.33    75.5  459.08    76.6  458.67    77.6  458.21    78.6  457.72
   78.89  457.63    79.5  457.44    79.7  457.39    81.7  457.15    82.8  457.07
    84.8   456.8    85.8  456.72    86.1   456.7    87.9  456.67    88.9   456.7
    91.1  456.67    95.1  456.69    97.1  456.68    97.6   456.7    97.7  456.71
    98.2  456.73    98.6  456.77    98.9  456.81   100.2  456.98   101.3  457.16
   102.3  457.25   104.3  457.34   105.4   457.4   105.7  457.41   106.4  457.43
   108.5  457.42   109.3  457.43   109.5  457.43   109.8  457.53  110.04 457.629
   110.5  457.82     111  458.16   111.5  458.57   112.6   459.4   113.6  460.31
   114.6  460.79   115.7  460.79   116.7  460.91   117.7  461.16   118.8  461.14
   119.3  460.99   119.8  460.85   120.1  460.79   120.8  460.64   121.8  460.49
     122  460.48   122.6  460.44   122.9  460.42   125.9   460.4   128.4  460.36
   130.1  460.31   131.1  460.22   132.1  460.04   132.5  460.02   133.2     460
   134.2  460.11   135.2  460.16   140.9   460.1   144.5  460.09   147.4  460.05
   149.6  460.05     162  459.96   165.7  459.96   167.1  459.98   168.1  459.98
   171.5  459.92   174.3   459.9   176.4  459.91   177.3  459.92   181.4  459.92
   184.6  459.86   188.9  459.72   190.5  459.71   191.1  459.73   191.4  459.74
   191.8  459.76   192.8  459.76   194.9   459.7   195.2  459.71   195.5  459.71
   195.9  459.72   196.3  459.72   196.5  459.73     200  459.73   202.1  459.75
   204.6  459.74   205.5  459.74     206  459.75   206.2  459.75
#Mann= 3 ,0,0
       0     .01       0   78.89     .03       0  110.04     .01       0
Levee=-1,59,460.4,-1,117.8,461.2,,
Bank Sta=78.89,110.04
XS Rating Curve= 0 ,0
XS HTab Starting El and Incr=456.82,0.22, 20 
XS HTab Horizontal Distribution= 5 , 5 , 5 
Exp/Cntr=0.3,0.1

River Reach=Gave            ,Cauterets       
Reach XY= 11 
        449157.2       6211441.8        449238.4       6211471.1
        449273.6       6211500.8        449314.1       6211565.4
        449354.4        6211610.        449394.5       6211629.6
        449459.5       6211639.1        449585.8        6211693.
        449680.9       6211712.2         449736.       6211731.7
     449846.5292     6211820.637
Rch Text X Y=449329.5323,6211536.50925
Reverse River Text= 0 

Type RM Length L Ch R = 1 ,4500    ,68.167,68.167,68.167
XS GIS Cut Line=2
449198.1926349746211513.49784484 449304.621601176211422.27301668
Node Last Edited Time=Apr/20/2022 20:03:45
#Sta/Elev= 92 
       0  475.92       3  476.02     5.7  476.14     7.3  476.18     8.3  476.15
     9.2   476.1    10.1  476.02    10.8  476.01    11.6     476    13.8  476.03
    14.9  476.07    15.8  476.15    16.9  476.18    21.5  476.39      23  476.37
    24.1  476.37    27.2   476.5    28.6  476.54    29.2  476.53    29.3  476.51
    29.4  476.49      30  476.27    30.7  475.84    31.4  475.21    32.3  474.31
   32.58 474.097    32.8  473.93    33.3  473.68    33.8  473.51    35.3  473.39
    36.9  473.34    38.4  473.35    41.2  473.31      43  473.31    44.2  473.28
    49.9  473.25    50.7  473.26    51.3  473.37    51.8  473.54    52.2  473.68
    52.7  473.93   52.91   474.1    53.8  474.82    54.4  475.21    55.3  475.73
    55.7   475.9    56.9  476.32      57  476.37    58.4   476.6    59.9   476.8
    61.2  476.96    62.3  477.02    63.6  477.05    66.9  477.05    72.2   477.2
      74  477.27    75.4  477.31    76.8  477.27    78.1   477.2    79.9  477.09
    81.4  476.96      83  476.89    89.1  476.88    95.3  476.93    96.6  476.92
    97.9  476.87   100.9  476.79   102.3  476.79   102.9   476.8   104.5   476.9
   105.9  477.05   108.4  477.34   109.7   477.4   112.3  477.36   113.7  477.44
   115.2  477.48   115.8  477.49   116.3  477.49   116.5  477.48   116.8  477.48
   117.9  477.41   118.3   477.4   119.9  477.34   121.4  477.24   126.8  476.77
   129.3   476.5   130.7  476.37   132.1  476.21   133.4  476.15     135  476.16
   137.1  476.26   140.2  476.44
#Mann= 3 ,0,0
       0     .01       0   32.58     .03       0   52.91     .01       0
Bank Sta=32.58,52.91
XS Rating Curve= 0 ,0
XS HTab Starting El and Incr=473.4,0.2, 20 
XS HTab Horizontal Distribution= 5 , 5 , 5 
Exp/Cntr=0.3,0.1

Type RM Length L Ch R = 1 ,4466.67*,68.167,68.167,68.167
XS GIS Cut Line=2
449224.454326952 6211540.6809997449324.8937844516211453.60275447
Node Last Edited Time=Apr/20/2022 20:03:45
#Sta/Elev= 166 
       0 474.807    2.18 474.865   3.014 474.881   3.567 474.896   5.726 474.943
   7.334 474.957   8.225 474.932   8.338  474.93   9.242 474.892  10.147 474.835
   10.85 474.825  11.653 474.815  12.783  474.82  13.864  474.83  14.071 474.835
  14.969  474.86  15.873 474.918  16.978 474.942  17.242 474.951  20.413 475.071
  21.599 475.124  23.106 475.132  23.187 475.133  24.211 475.144  25.863 475.206
  27.325 475.247  28.538  475.27  28.732 475.271  28.836 475.269  29.133 475.249
  29.334 475.241  29.435 475.224  29.535 475.208  29.926 475.102  30.138 475.031
  30.223 474.989  30.841 474.625  31.545 474.078  32.106 473.604  32.449 473.293
  32.502 473.253   32.73 473.098  32.963 472.942  32.973 472.937  33.492 472.735
  33.513 472.729  34.022 472.591  34.323 472.558  34.863 472.514   35.61 472.475
  36.214 472.461  36.844 472.452  37.304 472.452  37.384 472.454  38.554 472.492
  38.892   472.5  39.814 472.512  40.625 472.511  40.985 472.508  41.856 472.494
  41.975 472.493  42.965 472.467  43.762 472.439  45.032 472.375  45.846 472.344
  47.016 472.307  51.067  472.28  52.775 472.306  54.023 472.391  54.056 472.393
   54.75  472.47  55.123 472.514   55.38 472.545  55.977 472.629   56.01 472.635
  56.107 472.654  56.204 472.672  56.446 472.727  56.689 472.784  57.045 472.886
  57.125 472.917  57.319 473.006  57.493   473.1  58.263 473.654  58.425 473.751
  58.782 473.965  59.007 474.087   59.56 474.408  59.906 474.568  60.609 474.853
    60.9 474.992  60.943  475.01   61.03 475.056   62.24 475.392  62.356 475.422
  62.647 475.485  62.793 475.523  63.537 475.647   64.54 475.805  64.661 475.825
  64.685 475.828  65.612 475.882  65.705 475.885  66.724  475.92  66.736  475.92
  68.762 475.933  69.589 475.934  74.172 476.037  75.728 476.084  76.939 476.112
  78.149 476.086  79.099 476.047  79.273  476.04   80.83 475.963  82.011 475.881
  82.127 475.872   83.51 475.816  87.397 475.782  88.125 475.784  88.416 475.784
  88.562 475.787  88.784  475.79  89.436 475.804  90.163 475.832  91.474 475.897
  92.056 475.924  92.493  475.94   92.93 475.956  94.094 475.983  94.145 475.983
  95.269 475.981  95.987 475.962  96.393  475.95  98.987 475.898  99.419 475.899
 100.197 475.899 100.716 475.906 101.811 475.959 102.099 475.975  103.31 476.082
 105.472 476.289 106.178 476.318 106.596 476.334 108.844 476.312 110.054 476.368
 111.351 476.397  111.87 476.405 112.302 476.406 112.475 476.399  112.73   476.4
 113.685 476.357 114.031 476.351 115.415 476.316 116.712 476.255 121.381 475.958
 123.542 475.786 124.753 475.704 125.963 475.602 127.087 475.566 128.471 475.577
 129.181 475.606 130.286 475.648 131.656 475.711 132.384 475.741 132.675 475.754
 132.967 475.763
#Mann= 3 ,0,0
       0     .01       0   32.73     .03       0  57.493     .01       0
Bank Sta=32.73,57.493
XS Rating Curve= 0 ,0
XS HTab Starting El and Incr=472.43,0.2, 20 
XS HTab Horizontal Distribution= 5 , 5 , 5 
Exp/Cntr=0.3,0.1

Type RM Length L Ch R = 1 ,4433.33*,68.167,68.167,68.167
XS GIS Cut Line=2
449250.7160189296211567.86415455449345.1659677316211484.93249227
Node Last Edited Time=Apr/20/2022 20:03:45
#Sta/Elev= 166 
       0 473.693    2.19 473.737   3.028 473.743   3.584 473.748   5.752 473.746
   7.367 473.734   8.262 473.711   8.376 473.709   9.285 473.684  10.193  473.65
  10.899  473.64  11.707  473.63  12.841 473.625  13.927  473.63  14.136 473.633
  15.037 473.651  15.945 473.685  17.056 473.704  17.321 473.711  20.506 473.805
  21.698 473.858  23.212 473.894  23.294 473.897  24.322 473.917  25.981 473.973
   27.45 473.993  28.669 474.005  28.863 474.002  28.968 473.999  29.266 473.964
  29.469 473.951   29.57 473.939  29.671 473.926  30.063 473.856  30.276 473.792
  30.361 473.759  30.983  473.41  31.689 472.946  32.253 472.557  32.597 472.276
  32.651 472.237   32.88 472.099  33.126 471.954  33.137 471.948  33.685  471.79
  33.707 471.784  34.243 471.671  34.562 471.629  35.132 471.582  35.919  471.56
  36.557 471.551  37.222 471.551  37.707 471.564  37.792 471.567  39.027 471.636
  39.383 471.651  40.357 471.686  41.212 471.696  41.592 471.694  42.512 471.678
  42.637 471.677  43.683 471.623  44.523 471.568  45.864  471.47  46.723 471.412
  47.958 471.343  52.233  471.31   54.85 471.352  56.762 471.416  56.812 471.417
  57.875  471.46  58.447 471.488   58.84 471.507  59.755 471.578  59.805 471.583
  59.954 471.597  60.102 471.611  60.473 471.663  60.844 471.722   61.39 471.843
  61.512 471.873  61.809 471.978  62.077 472.101  62.726 472.489  62.863 472.561
  63.163 472.719  63.354 472.814   63.82 473.086  64.111 473.236  64.704 473.522
   64.95 473.681  64.986   473.7  65.059 473.736   66.08 474.185  66.178 474.226
  66.424 474.308  66.546 474.362  67.174 474.494   68.02 474.668  68.122  474.69
  68.143 474.694  68.924 474.744  69.002 474.747  69.862  474.79  69.872  474.79
  71.581 474.817  72.279 474.818  76.144 474.874  77.457 474.899  78.478 474.914
  79.499 474.902  80.299 474.884  80.447 474.879  81.759 474.835  82.755 474.791
  82.853 474.785   84.02 474.741  87.299 474.681  87.913 474.687  88.158 474.687
  88.281 474.693  88.468   474.7  89.018 474.722  89.632 474.771  90.737 474.888
  91.228 474.937  91.596 474.965  91.965 474.993  92.947 475.036   92.99 475.037
  93.938 475.042  94.544 475.036  94.886  475.03  97.074 475.007  97.438 475.007
  98.095 475.008  98.532 475.012  99.455  475.04  99.699  475.05  100.72 475.115
 102.543 475.238 103.139 475.259 103.491 475.268 105.387 475.264 106.408 475.296
 107.502 475.314  107.94  475.32 108.304 475.322  108.45 475.319 108.665  475.32
 109.471 475.304 109.763 475.303 110.929 475.293 112.023 475.269 115.961 475.146
 117.784 475.072 118.805 475.038 119.826 474.993 120.774 474.981 121.941 474.995
 122.541 475.013 123.473 475.036 124.628 475.071 125.242  475.08 125.488 475.087
 125.733 475.087
#Mann= 3 ,0,0
       0     .01       0   32.88     .03       0  62.077     .01       0
Bank Sta=32.88,62.077
XS Rating Curve= 0 ,0
XS HTab Starting El and Incr=471.46,0.2, 20 
XS HTab Horizontal Distribution= 5 , 5 , 5 
Exp/Cntr=0.3,0.1

Type RM Length L Ch R = 1 ,4400    ,56.8,56.8,56.8
XS GIS Cut Line=2
449276.9777138466211595.04731245449365.4381532816211516.26223357
Node Last Edited Time=Apr/20/2022 20:03:45
#Sta/Elev= 79 
       0  472.58     2.2  472.61     3.6   472.6     8.3  472.49    12.9  472.43
    14.2  472.43    17.4  472.47    20.6  472.54    23.4  472.66    26.1  472.74
    28.8  472.74    29.1  472.73    29.4  472.68    30.2  472.61    30.5  472.53
    32.4  471.51    32.8  471.22   33.03   471.1    33.3  470.96    33.9  470.84
    34.8   470.7    35.4  470.65    36.9  470.64    37.6  470.65    38.2  470.68
    39.5  470.78    40.9  470.86    41.8  470.88    42.2  470.88    43.3  470.86
    44.4  470.78    47.6  470.48    48.9  470.38    53.4  470.34    59.5  470.44
      61  470.45    62.3  470.47    63.6  470.53    63.8  470.54      64  470.55
    64.5   470.6      65  470.66    65.9  470.83    66.3  470.95   66.66 471.101
    67.3  471.37    67.7  471.54    68.8  472.19      69  472.37      70  473.03
    70.2  473.13    70.3   473.2    71.5  473.53    71.6  473.56    72.3  473.61
      73  473.66    74.4   473.7    81.5  473.72    83.5   473.7    87.2  473.58
    87.7  473.59    87.9  473.59      88   473.6    88.6  473.64    89.1  473.71
      90  473.88    90.4  473.95    90.7  473.99      91  474.03    91.8  474.09
    93.1  474.11    97.1  474.12   100.1   474.2   104.6  474.24   115.9  474.42
   117.6  474.43   118.1  474.42   118.3  474.42   118.5  474.41
#Mann= 3 ,0,0
       0     .01       0   33.03     .03       0   66.66     .01       0
Bank Sta=33.03,66.66
XS Rating Curve= 0 ,0
XS HTab Starting El and Incr=470.49,0.2, 20 
XS HTab Horizontal Distribution= 5 , 5 , 5 
Exp/Cntr=0.3,0.1
