Geom Title=amont_lourdes
Program Version=6.00
Viewing Rectangle= 441413.47 , 453911.53 , 6220399.64 , 6201158.36 

Junct Name=amont           
Junct Desc=, 0 , 0 ,-1 ,0
Junct X Y & Text X Y=449846.53125,6211820.5,449846.53125,6211820.5
Up River,Reach=Gave            ,Gavarnie
Up River,Reach=Gave            ,Cauterets
Dn River,Reach=Gave            ,Pau_amont
Junc L&A=357.9,
Junc L&A=62.4,

River Reach=Gave            ,Gavarnie        
Reach XY= 12 
        449687.3       6211401.5        449788.5       6211435.6
     449818.6908      6211465.31     449818.6908      6211465.31
        449818.8       6211475.3        449833.9       6211495.2
        449869.7       6211590.8        449875.1       6211650.6
        449870.5       6211690.6         449856.       6211750.7
        449851.3       6211790.7     449846.5292     6211820.637
Rch Text X Y=449727.1073,6211506.28425
Reverse River Text= 0 

Type RM Length L Ch R = 1 ,4590    ,96.2,96.2,96.2
XS GIS Cut Line=2
449750.1031056486211525.33300442449889.4011227756211436.91629893
Node Last Edited Time=Apr/11/2022 19:45:12
#Sta/Elev= 84 
       0  462.82     3.1  462.81    14.7  462.67    19.4  462.69    23.4  462.67
    29.1  462.61    40.7  462.72    42.2  462.77    44.4  462.89    46.7  462.97
    49.4  462.98    51.4  462.94    52.3  462.95    52.6  462.93    53.8  462.78
      55  462.37    55.7  462.15    56.7  461.83    57.5  461.58    59.6  461.07
      61  460.66    61.8  460.41    62.1   460.3    62.5  460.18   63.78459.8509
    63.9  459.82    64.4  459.75    65.6  459.66    69.2  459.64    71.2  459.55
    72.6  459.37    74.1  459.11    75.5   458.9      77  458.84    85.7  458.82
    89.3  458.85    91.7  458.83    92.9   458.8      94   458.8    95.2  458.85
    96.4  458.86    98.7   458.8   100.2   458.8   101.1  458.85   101.6  458.89
   102.3  459.04   103.1  459.61  103.32 459.852   103.5  460.05   104.2  461.18
   104.7     462   105.9  463.34   105.9  463.38   106.1  463.43   107.1  463.95
   107.4  464.05   107.9  464.17   108.1  464.21   108.3  464.24   112.5  464.36
     113  464.39   114.2  464.53   115.4  464.59   117.2  464.57   120.1  464.61
   122.5   464.6   123.3  464.63   124.8  464.73     126   464.7   126.2  464.69
   126.6  464.66     127  464.62   127.2  464.59   127.7  464.53   129.1  464.49
   136.4  464.59     139   464.6   140.7  464.66   150.8  464.89   153.8  465.01
   156.7  465.11   159.6  465.22   161.7   465.3     165  465.43
#Mann= 3 ,0,0
       0     .01       0   63.78      .1       0  103.32     .01       0
Bank Sta=63.78,103.32
XS Rating Curve= 0 ,0
XS HTab Starting El and Incr=458.95,0.3, 22 
XS HTab Horizontal Distribution= 5 , 5 , 5 
Exp/Cntr(USF)=0,0
Exp/Cntr=0.3,0.1

Type RM Length L Ch R = 1 ,4580    ,60.15,60.15,60.15
XS GIS Cut Line=2
449788.4726193476211589.56023387449946.1212734616211540.34716195
Node Last Edited Time=Apr/11/2022 19:45:12
#Sta/Elev= 124 
       0  461.26     3.3  461.26     6.5   461.2    10.5  461.22    11.6  461.21
    14.7  461.14    25.2  461.12    28.3  461.14    30.4  461.19    32.5  461.26
    34.6  461.29    37.7  461.26    39.8  461.27    40.9  461.27      44  461.19
    46.1  461.17    47.2  461.18    49.3  461.23    51.4  461.23    56.6  461.13
    58.7  461.12    60.7  461.13    61.8  461.15      64  461.22      65  461.28
      67  461.32    68.1  461.31    71.3  461.18    71.5  461.16    71.9  461.13
    73.4  460.98      74  460.78    74.4  460.66    75.1  460.33    76.7  459.55
    77.6  459.12   77.64 459.102    78.6  458.67    79.1   458.5    79.6  458.34
    79.9  458.29    80.7   458.2    85.9  458.25    88.3  458.25    92.2  458.19
    97.5   458.2    98.5  458.22    98.9   458.4    99.1  458.44    99.6   458.7
  100.05 459.105   100.6   459.6   100.9  459.92   101.6  460.94     102  461.35
   102.3  461.74   102.7  462.13   103.5  462.53   103.7  462.63   103.9  462.64
   104.7  462.67   104.8  462.68   105.5  462.74   105.8  462.79   106.9  462.96
   107.1     463   107.9  463.25   108.1   463.3   108.6  463.53     109  463.62
     110  463.59   110.2  463.52     111  463.21   111.1   463.2   112.1     463
   114.2  462.99   117.4  463.05   118.2  463.04   119.5  462.94   119.8  462.83
   120.5  462.58   121.4     462   121.5  461.93   121.8  461.86   122.2  461.74
   122.6  461.63     123  461.63   123.3  461.67   124.7  461.75   125.7  461.77
   127.8  461.86   129.9     462     132  462.19   132.5  462.22   132.6  462.23
   133.1  462.26   136.2  462.38   140.4  462.32   141.4  462.35   142.2   462.4
   142.5  462.42   143.1  462.45   143.5  462.47   143.8  462.48   144.5  462.48
   144.6  462.48   145.4   462.5   145.6  462.51   146.2  462.52   146.7  462.52
     147  462.53   147.9  462.53   148.6  462.55   151.2  462.52   151.8  462.52
   151.9  462.52     153  462.55     155  462.57   157.2  462.57   158.2  462.59
   158.3   462.6   158.9  462.62   159.7  462.64   165.2  462.68
#Mann= 3 ,0,0
       0     .01       0   77.64      .1       0  100.05     .01       0
Bank Sta=77.64,100.05
XS Rating Curve= 0 ,0
XS HTab Starting El and Incr=458.34,0.26, 20 
XS HTab Horizontal Distribution= 5 , 5 , 5 
Exp/Cntr(USF)=0,0
Exp/Cntr=0.3,0.1

Type RM Length L Ch R = 1 ,4575.00*,60.15,60.15,60.15
XS GIS Cut Line=2
449804.3208967456211636.68800613449960.7183710656211614.16676983
Node Last Edited Time=Apr/11/2022 19:45:12
#Sta/Elev= 207 
       0  460.67   2.928 460.649   4.926 460.614   5.767 460.609   6.072 460.611
   7.218 460.639   9.316 460.672   9.509 460.674  10.292 460.668    11.8 460.646
  12.946 460.621  13.042 460.618  15.237 460.568  16.383 460.526  17.529 460.505
   19.82 460.488  21.997  460.45  22.357 460.446  24.403 460.432  25.108 460.438
  26.694 460.466  26.971 460.473  28.834 460.529  30.245 460.556  30.697 460.563
  33.448 460.563  34.713 460.573  35.311 460.574  36.287 460.573   38.15 460.543
  39.037 460.532    40.9 460.525  41.876 460.531  43.739  460.56  45.602 460.563
  49.607 460.527  50.216 460.517  52.079 460.502  53.853 460.498  54.829 460.503
  56.781 460.528  57.668 460.554  58.429 460.559  59.443 460.559  60.418 460.543
  63.257 460.447  63.435 460.435  63.469 460.434   63.79 460.419  64.615 460.368
  65.121 460.311  65.653 460.181  65.761 460.157  66.008 460.086  66.629 459.848
  66.906 459.739  68.048 459.226  68.847 458.812  69.198 458.636   69.45458.5213
  69.734 458.392  70.178 458.218  70.343 458.155  70.621 458.066  70.887 458.004
  71.489 457.882  71.597 457.864  72.635 457.761  73.666 457.721  74.811 457.687
  76.186  457.67  76.211  457.67   78.34 457.657  79.509  457.64  80.654  457.61
    81.8  457.59    83.3 457.605    84.8  457.59    85.3  457.59  86.275 457.621
  87.251 457.682  88.226 457.738  88.616 457.763  89.201 457.789  90.176 457.805
  90.738 457.793  91.152 457.789  91.764 457.958  92.127 458.135  92.174 458.174
   92.38  458.32   92.61  458.52  92.893 458.766  93.102 458.987  93.395  459.29
  93.919 459.766  94.077 459.922  94.226  460.06  94.945 460.861  95.053 460.959
  95.355 461.194  95.663 461.474  96.028 461.748  96.073 461.777  96.223 461.836
  96.894 462.065  97.003 462.102  97.099 462.122  97.305 462.119  97.978 462.107
  98.125 462.085  98.228 462.073  98.946 461.981  99.149 461.976  99.254 461.976
  99.929 461.966 100.383 461.999 100.588 462.018 101.409 462.141 101.614 462.165
 101.684 462.181 102.127 462.282 102.537 462.329 103.563 462.319 103.768 462.285
 104.589 462.134 104.692  462.13 104.708 462.128 105.718 462.025  105.78 462.025
 106.756 462.013 107.731  461.92 107.873 461.894 108.706 461.748 109.682 461.687
 111.156  461.74 111.977 461.758 112.607 461.751 113.311 461.736 113.583 461.691
 113.618 461.685 114.337 461.564 114.558 461.496  115.26 461.271 115.363 461.235
  115.67 461.198 116.081 461.136 116.216 461.117 116.491 461.077 116.902 461.073
 117.209  461.09 118.646 461.116 118.751 461.116 119.434 461.123 119.672 461.127
 121.827 461.195  122.36 461.217 123.981 461.256 125.286 461.302 126.136 461.342
 126.649 461.359 126.752 461.364 127.265 461.381 128.797 461.414 130.445  461.46
 132.113 461.463 134.063  461.45 134.755 461.456 135.038 461.464 135.781 461.502
 136.014 461.517 136.601 461.541 136.909 461.554 137.525 461.576 137.935  461.59
 137.964  461.59 138.243 461.595 138.961 461.595 139.064 461.595 139.885 461.605
 140.012 461.608  140.09 461.609 140.705 461.605 141.218 461.598 141.526 461.599
  142.45 461.586 142.548 461.586 143.168 461.583 143.816 461.566 145.836 461.552
 146.451 461.552 146.554 461.551 147.682 461.565 147.717 461.565 148.497 461.564
 148.692  461.56 149.667  461.55 149.735  461.55 151.813  461.54 151.992  461.54
 153.018 461.549  153.12 461.553 153.736 461.563 154.557 461.572 155.909 461.575
 158.932 461.601   160.2 461.605
#Mann= 3 ,0,0
       0     .01       0   69.45      .1       0   92.61     .01       0
Bank Sta=69.45,92.61
XS Rating Curve= 0 ,0
XS HTab Starting El and Incr=457.74,0.24, 20 
XS HTab Horizontal Distribution= 5 , 5 , 5 
Exp/Cntr=0.3,0.1

Type RM Length L Ch R = 1 ,4570    ,90.7,90.7,90.7
XS GIS Cut Line=2
449820.1691741436211683.81577839449975.3154686686211687.98637771
Node Last Edited Time=Apr/11/2022 19:45:12
#Sta/Elev= 90 
       0  460.08     4.3  460.01     5.3  460.02     6.3  460.07     8.3  460.13
    10.3  460.12    11.3   460.1    13.3     460    14.3  459.92    15.3  459.88
    17.3  459.85    19.2  459.78    21.3  459.73    23.3  459.75    26.4  459.83
    30.3  459.88    33.3  459.87    43.3  459.91      51  459.82    55.4  459.71
    56.4   459.7    57.4  459.57    58.4   459.3    59.4   458.9    60.4  458.33
   61.21457.9574    61.4  457.87    62.4  457.55    63.4  457.31    64.3  457.22
    65.3  457.14    66.5  457.09    69.4  457.05    70.4  457.01    71.4  456.99
    74.4  457.02    77.4  456.99    78.4  456.99    79.4  457.05    80.4  457.17
    81.4  457.28    81.8  457.33    82.4  457.38    83.4  457.41    84.4  457.37
    85.4  457.89   85.45  457.95    86.4  459.09    86.7  459.44    87.4  460.08
    88.4  460.87    89.4  461.41    89.6  461.47    90.4  461.62    91.4  461.55
    92.4  461.22    92.6  461.18    93.4  461.04    95.2  461.03    98.3  461.06
    99.4  461.05   100.4  461.03   101.4  460.85   102.4  460.49   103.4  460.35
   106.4  460.51   107.4  460.54   108.4  460.55   110.1  460.53   112.7  460.48
   113.4  460.48   116.4  460.54   119.4  460.49     123  460.51   126.4  460.57
   128.4  460.57   129.4   460.6   130.4  460.67   132.4  460.71   134.5  460.71
   137.1  460.64   138.4  460.59   142.4  460.58   143.2  460.57   143.4  460.56
   144.4  460.53   146.6  460.51   150.8   460.5   153.9  460.53   155.2  460.53
#Mann= 3 ,0,0
       0     .01       0   61.21      .1       0   85.45     .01       0
Bank Sta=61.21,85.45
XS Rating Curve= 0 ,0
XS HTab Starting El and Incr=457.14,0.22, 20 
XS HTab Horizontal Distribution= 5 , 5 , 5 
Exp/Cntr(USF)=0,0
Exp/Cntr=0.3,0.1

Type RM Length L Ch R = 1 ,4560    ,,,
XS GIS Cut Line=2
449840.1880508566211769.73012429449914.4247186666211793.91960032
Node Last Edited Time=Apr/11/2022 19:45:12
#Sta/Elev= 53 
       0  459.76     5.6  459.51     8.8  459.34    10.8  459.29    11.9  459.29
    12.9  459.32      14  459.21    15.1  458.96    16.1  458.51   17.15457.9182
    17.2  457.89    18.2  457.42   18.35457.3682    19.3  457.04    20.3  456.71
    21.4  456.42    22.4  456.25    23.5   456.2    24.5  456.17      27   456.2
      31   456.2      34  456.24      35  456.39    35.8  456.56    36.1  456.66
    37.1  456.95    37.3  456.99    38.9  457.15    40.3  457.22    40.5  457.23
    41.3  457.32    41.9457.3691    42.4  457.41    43.4  457.46    45.6  457.49
    48.7  457.63    52.4  457.86   53.29457.9201    56.1  458.11    61.1  458.38
    63.5  458.46    65.5   458.5    66.6   458.8    67.6   459.4    68.7  459.72
    69.1  459.74    69.7  459.74    70.7  459.66    70.8  459.65    71.8  459.42
    72.9  459.31      74  459.28    78.1  459.23
#Mann= 3 ,0,0
       0     .01       0   17.15      .1       0   53.29     .01       0
Bank Sta=17.15,53.29
XS Rating Curve= 0 ,0
XS HTab Starting El and Incr=456.32,0.17, 20 
XS HTab Horizontal Distribution= 5 , 5 , 5 
Exp/Cntr(USF)=0,0
Exp/Cntr=0.3,0.1

River Reach=Gave            ,Cauterets       
Reach XY= 11 
        449157.2       6211441.8        449238.4       6211471.1
        449273.6       6211500.8        449314.1       6211565.4
        449354.4        6211610.        449394.5       6211629.6
        449459.5       6211639.1        449585.8        6211693.
        449680.9       6211712.2         449736.       6211731.7
     449846.5292     6211820.637
Rch Text X Y=449329.5323,6211536.50925
Reverse River Text= 0 

Type RM Length L Ch R = 1 ,4457.12 ,92.4,92.4,92.4
XS GIS Cut Line=2
449157.0701995686211507.75012384449199.6103125836211390.97334302
Node Last Edited Time=Apr/11/2022 19:45:12
#Sta/Elev= 77 
       0  477.42     1.3  477.38     2.9  477.38     7.6  477.31     8.3  477.31
     9.8  477.35    10.9  477.42      12  477.51      13  477.54    15.2  477.51
    16.9  477.52    18.8  477.55    21.6  477.64    23.2  477.67    26.9  477.69
    30.1  477.75    31.1  477.75    35.4  477.78    37.2  477.83    38.8  477.97
    39.6  477.99    39.9  477.92    40.3  477.82    40.7  477.64    41.8  476.74
    42.2  476.45   42.66 476.013    42.8  475.88    43.2  475.66    43.4  475.51
    43.9  475.33      45   475.1      46  475.08    47.1  475.08    50.9  475.17
    57.5  475.17    58.8  475.19      59  475.24    59.9  475.52    60.6   475.9
   60.78476.0103    62.2  476.88    63.1  477.35    63.7  477.62    64.1  477.76
    65.2  477.98    65.5  478.01    66.3  478.06    67.3  478.11    68.4  478.18
    71.7  478.45    74.8  478.67    75.8   478.7    76.2  478.71    76.9   478.7
      78  478.65      79  478.63    80.1  478.63    80.9  478.65    83.2  478.79
    84.3  478.88    86.5  479.02    88.4  479.12    89.7  479.16    93.4  479.24
    96.5  479.23   107.4   479.6     112   479.7   112.9  479.73   115.2  479.86
   116.3  479.94   116.8  479.99   116.9     480   117.3  480.05   120.5  480.47
   121.4  480.55   124.3   480.6
#Mann= 3 ,0,0
       0     .01       0   42.66      .1       0   60.78     .01       0
Bank Sta=42.66,60.78
XS Rating Curve= 0 ,0
XS HTab Starting El and Incr=475.23,0.27, 20 
XS HTab Horizontal Distribution= 5 , 5 , 5 
Exp/Cntr(USF)=0,0
Exp/Cntr=0.3,0.1

Type RM Length L Ch R = 1 ,4457.11*,92.4,92.4,92.4
XS GIS Cut Line=2
 449212.539170466211553.20965637449285.5246584756211455.61763241
Node Last Edited Time=Apr/11/2022 19:45:12
#Sta/Elev= 148 
       0     475     .95 475.035     2.2 475.045    2.75 475.055    4.05 475.015
     5.6 475.025     6.3  475.02     9.1 474.955   10.95 474.935      12  474.93
   13.45 474.955   14.85 474.985    16.6 475.055   17.35  475.08    17.9 475.085
   19.15 475.085   19.75 475.015   19.85 474.995   20.85 474.455      21 474.335
   21.21 474.234  21.505 474.184  22.145 474.131  22.489  474.11  22.653 474.095
  23.296 474.061  23.801  474.03  24.621 473.996  26.677  473.97  26.752  473.97
  27.181  473.97   28.26  473.99  28.556 474.003  29.051 474.035  29.842 474.097
  30.562 474.127  32.144 474.144  33.147 474.169  33.367 474.172  34.734 474.199
  35.443 474.221  36.748 474.242  37.083 474.244  37.899  474.24   39.05 474.224
   40.56  474.19  41.674 474.174  42.862  474.15  43.582 474.126  44.953 474.087
  46.675 474.054  47.249 474.051   47.97 474.067  49.121 474.139  49.545 474.147
  49.696  474.15  49.912 474.114    50.2 474.063  50.487 473.972   50.68473.8618
  51.279  473.52  51.566 473.374  51.998 473.087  52.286 472.976   52.43 472.901
  52.789  472.81  53.581 472.692    54.3  472.68   54.85  472.68  57.063 472.726
  60.905 472.727  61.662 472.737  61.779 472.763  62.303 472.903   62.71 473.093
  63.642 473.583  64.166 473.818   64.29 473.866  64.515 473.953  64.748 474.024
  65.389 474.134  65.563 474.149  66.029 474.174  66.612 474.199  67.252 474.234
  68.654 474.333  69.173  474.37  70.978 474.482  71.561 474.497  71.794 474.502
  72.201 474.498  72.842 474.473  73.424 474.464  74.064 474.464   74.53 474.474
  75.378 474.519  75.869 474.547   76.51 474.594  77.791 474.668  78.897 474.722
  79.654 474.745  81.808 474.792  83.613 474.793  84.227 474.813  88.474 474.967
   89.96 475.018  90.244 475.025  92.638   475.1  93.075 475.118  93.162 475.122
  94.501 475.225  95.142 475.283  95.199  475.29  95.433 475.319  95.491 475.326
  95.724  475.36  96.261  475.44  97.587 475.637  97.676 475.647  98.111 475.705
    99.8 475.825   99.85 475.845   100.1  475.96  100.75  476.34   101.2 476.675
   101.3  476.74  101.35 476.785     102  477.02   102.6  477.06  103.25  477.08
   104.5 477.095   107.7   477.1  109.15 477.075   111.3  477.01     112  477.07
   112.7  477.21   113.4  477.27  114.45  477.29   116.1 477.315   116.9 477.335
  117.75  477.35  119.15 477.345  121.45 477.365   122.7  477.35  124.15 477.365
   125.2  477.37  126.25  477.35  127.05 477.275
#Mann= 3 ,0,0
       0     .01       0   50.68      .1       0   64.29     .01       0
Bank Sta=50.68,64.29
XS Rating Curve= 0 ,0
XS HTab Starting El and Incr=472.83,0.23, 20 
XS HTab Horizontal Distribution= 5 , 5 , 5 
Exp/Cntr=0.3,0.1

Type RM Length L Ch R = 1 ,4457.1  ,85.1,85.1,85.1
XS GIS Cut Line=2
449268.0081413526211598.66918891449371.4390043686211520.26192179
Node Last Edited Time=Apr/11/2022 19:45:12
#Sta/Elev= 75 
       0  472.58     1.9  472.65     4.4  472.67     5.5  472.69     8.1  472.61
    11.2  472.63    12.6  472.62    18.2  472.49    21.9  472.45      24  472.44
    26.9  472.49    29.7  472.55    33.2  472.69    34.7  472.74    35.8  472.75
    38.3  472.75    39.5  472.61    39.7  472.57    41.7  471.49      42  471.25
   42.41471.0518   42.42 471.047    42.6  470.96    43.2  470.84    43.3  470.81
      44  470.69    44.5  470.64    45.8  470.63    46.9  470.63    49.7  470.82
    51.1  470.86    52.1  470.84    53.3  470.77    54.9  470.63    56.9  470.41
    58.3   470.3    59.7  470.31    62.6  470.28    66.5  470.29    68.4   470.3
    70.9  470.36    72.1  470.42    72.6  470.44    73.4  470.51      74  470.63
    74.3  470.71    74.7  470.81    75.3  471.05    75.4  471.09    75.9  471.32
    77.2  472.08    78.1  472.75    78.3  472.88    78.4  472.97    79.7  473.44
    80.9  473.52    82.2  473.56    84.7  473.59    91.1   473.6      94  473.55
    98.3  473.42    99.7  473.54   101.1  473.82   102.5  473.94   104.6  473.98
   107.9  474.03   109.5  474.07   111.2   474.1     114  474.09   118.6  474.13
   121.1   474.1     124  474.13   126.1  474.14   128.2   474.1   129.8  473.95
#Mann= 3 ,0,0
       0     .01       0   42.41      .1       0    75.3     .01       0
Bank Sta=42.41,75.3
XS Rating Curve= 0 ,0
XS HTab Starting El and Incr=470.43,0.19, 20 
XS HTab Horizontal Distribution= 5 , 5 , 5 
Exp/Cntr(USF)=0,0
Exp/Cntr=0.3,0.1

Type RM Length L Ch R = 1 ,4457.05*,85.1,85.1,85.1
XS GIS Cut Line=2
449359.7613262856211645.79696118449417.7326567666211553.62671631
Node Last Edited Time=Apr/11/2022 19:45:12
#Sta/Elev= 123 
       0 470.405   1.629 470.422   3.774 470.408   4.077 470.408   4.717 470.411
   6.947 470.356   7.794 470.353   9.605 470.364  10.192 470.363  10.806 470.368
  13.789 470.365  15.609 470.348  17.387 470.344  18.782 470.328  20.583 470.314
  22.303 470.322   23.07 470.333  25.471 470.373  27.099 470.418  28.473 470.448
  29.759 470.471  30.696 470.475  31.895 470.485  32.847  470.46  33.095 470.428
  33.876 470.362  34.047 470.339  34.294 470.257  35.493  469.55  35.763 469.316
   36.02 469.055   36.38 468.755   36.45 468.713  36.485 468.692  36.835 468.566
  36.893  468.54  37.291 468.407  37.302 468.404  37.593 468.357  38.351 468.296
  38.692  468.27  38.993 468.245  40.626 468.204  40.794 468.194  41.443 468.208
  42.026 468.197  42.726  468.16  43.659 468.087  44.825 467.974  45.642 467.917
  46.459  467.92   48.15   467.9   50.65 467.915    52.2 467.905   52.65  467.91
   53.65   467.9   54.62 467.936  55.589 468.027  56.656 468.134  57.626 468.255
  57.676 468.258  58.595 468.317  59.565  468.33  59.637  468.33   61.31 468.339
  62.218 468.327  63.444 468.325  63.457 468.325  63.973  468.34  64.413 468.364
  64.799 468.396  65.418 468.481  65.728 468.534  66.141 468.601  66.353 468.651
    66.6468.7159   66.76 468.758  66.854 468.784   67.27 468.911  67.327 468.928
  67.376 468.945  67.482 468.983  68.438 469.309  68.555 469.347  69.405 469.695
  69.594 469.763  69.689  469.81   70.35 469.946  70.917 470.069  71.731 470.119
  72.051 470.169  72.793 470.272  73.279 470.385  73.855 470.514  74.917  470.67
  75.641 470.733  75.979  470.76  77.041 470.801  81.687 470.857  82.351 470.859
  84.427 470.856  85.644 470.846   88.49  470.85  89.812 470.933  91.135 471.096
  92.458 471.179  93.079 471.196  94.442 471.228   97.56 471.295  99.071 471.335
 100.677 471.372 100.938 471.375 103.323 471.416 103.806 471.427 106.142 471.498
 107.669 471.535  110.03 471.566 110.497 471.578  112.77 471.649 113.364 471.667
 114.754 471.697 116.738 471.716  118.25  471.67
#Mann= 3 ,0,0
       0     .01       0   36.45      .1       0    66.6     .01       0
Bank Sta=36.45,66.6
XS Rating Curve= 0 ,0
XS HTab Starting El and Incr=468.05,0.19, 20 
XS HTab Horizontal Distribution= 5 , 5 , 5 
Exp/Cntr=0.3,0.1

Type RM Length L Ch R = 1 ,4457    ,72.1,72.1,72.1
XS GIS Cut Line=2
449451.5145112196211692.92473344449464.0263091656211586.99151083
Node Last Edited Time=Apr/11/2022 19:45:12
#Sta/Elev= 56 
       0  468.23     3.4  468.14     6.5  468.09     8.5   468.1    11.5  468.19
    14.5  468.22    18.6  468.17    22.6  468.21    25.6   468.2    26.6  468.22
    27.4  468.17    27.6  468.14    28.6   468.1    29.6  467.44   30.34466.4632
   30.35  466.45    30.6  466.12      31  465.91    31.6  465.56    33.7  465.52
    38.7  465.55    41.8  465.53    42.7  465.54    44.7  465.52    45.7  465.59
    46.7  465.77    47.8  465.98    48.8  466.22    49.8  466.34    50.8  466.36
    52.6  466.34    54.8  466.23    55.8  466.25    57.8  466.41   58.07 466.446
   58.22 466.466    58.7  466.53    58.8  466.54    58.9  466.55    59.8  466.61
    61.6  466.67    62.9  466.74    63.9     467    64.9  467.46    65.9  467.76
    66.9  467.93    67.9  468.01    72.9  468.13      76  468.18      83  468.44
    90.4  468.65    93.1  468.76    95.3  468.88    99.4  469.05   102.1   469.2
   106.7  469.39
#Mann= 3 ,0,0
       0     .01       0   30.35      .1       0   58.07     .01       0
Bank Sta=30.35,58.07
XS Rating Curve= 0 ,0
XS HTab Starting El and Incr=465.67,0.19, 20 
XS HTab Horizontal Distribution= 5 , 5 , 5 
Exp/Cntr(USF)=0,0
Exp/Cntr=0.3,0.1

Type RM Length L Ch R = 1 ,4308.00*,72.1,72.1,72.1
XS GIS Cut Line=2
 449487.10362412 6211707.6608505449506.8444606246211603.11782761
Node Last Edited Time=Apr/11/2022 19:45:12
#Sta/Elev= 109 
       0 467.193    2.56 467.147   2.911 467.143   5.565  467.13   6.927 467.145
   7.278 467.148   9.846 467.215  10.541 467.222  12.415 467.248  15.925 467.235
  16.866 467.247   19.35 467.275  20.028 467.275  21.233 467.242  21.685 467.221
  21.918   467.2  22.775 467.142  23.191 467.086  23.459 467.045  23.631 467.007
  24.487 466.889  24.697 466.759  25.343 466.342  25.977 465.609  25.996 465.595
  26.074 465.537    26.2465.4913  26.504 465.381  27.165  465.26  27.206 465.257
   27.83 465.222  28.143 465.215  28.455 465.215  28.993 465.222   29.04 465.223
  29.391 465.229  29.665 465.226  29.782 465.223  30.289 465.186  31.735 465.044
  32.279 465.035  33.996 464.977  35.167 464.947  35.987 464.905   37.08 464.825
  37.626 464.777  38.016 464.763  38.875 464.777  39.694 464.771  40.085 464.757
  40.514 464.736  40.904 464.705  41.333  464.69  44.252 464.711   45.47 464.715
  48.034 464.699  48.779 464.705  50.433  464.69  51.187 464.742  51.941 464.867
   52.77 465.012  53.523 465.177  53.897  465.22  54.277 465.268  55.031 465.297
  56.388 465.311  56.495 465.309  58.046 465.309  58.227  465.32  58.799 465.356
  59.382 465.425   59.85465.4897  60.307 465.553  60.623 465.612  61.082 465.737
  61.177  465.76  61.273 465.784  61.363 465.804  62.133 465.931  62.466 465.978
  63.238 466.032   63.68 466.056  63.852 466.064  64.783 466.122  65.094 466.135
  66.049 466.313  66.659 466.512  67.004 466.624   67.96 466.825  68.915 466.939
  69.528 466.974   69.87 466.997  74.646 467.125  76.479 467.164  77.607 467.182
   80.01 467.256  84.294 467.418  88.065 467.538  90.382 467.604  91.363 467.631
  91.596  467.64  93.942 467.715  94.575 467.741  96.044 467.807  99.872 467.944
   99.96 467.947 102.539 468.069 105.058 468.163 106.933  468.24
#Mann= 3 ,0,0
       0     .01       0    26.2      .1       0   59.85     .01       0
Bank Sta=26.2,59.85
XS Rating Curve= 0 ,0
XS HTab Starting El and Incr=464.84,0.17, 21 
XS HTab Horizontal Distribution= 5 , 5 , 5 
Exp/Cntr=0.3,0.1

Type RM Length L Ch R = 1 ,4159.00*,72.1,72.1,72.1
XS GIS Cut Line=2
449522.6927370216211722.39696756449549.662612082 6211619.2441444
Node Last Edited Time=Apr/11/2022 19:45:12
#Sta/Elev= 109 
       0 466.157    2.13 466.144   2.422 466.145    4.63 466.169   5.764 466.193
   6.055 466.195   8.192 466.239   8.771 466.246  10.329 466.275   13.25 466.299
  14.033 466.314    16.1 466.339  16.664 466.342  17.667 466.281  18.042  466.24
  18.237 466.201  18.949 466.063  19.295 465.983  19.519  465.92  19.661 465.873
  20.374 465.678  20.548 465.579  21.086 465.245  21.613 464.754  21.648 464.733
   21.72464.6838  21.787 464.638  22.552  464.45   23.73 464.399  23.803 464.398
  24.915 464.401  25.471 464.423  26.027 464.457  26.986 464.535   27.07 464.541
  27.696   464.6  28.182 464.628  28.391 464.636  29.295 464.628  31.871 464.528
   32.84 464.513  35.898 464.404  37.984 464.349  39.443 464.267   41.39 464.113
  42.363 464.018  43.058 463.991  44.587 464.023  46.047 464.016  46.742 463.988
  47.507 463.948  48.202 463.887  48.967  463.86  51.276  463.88  52.239 463.881
  54.268 463.868  54.858  463.87  56.167  463.86  56.674 463.893  57.181 463.964
   57.74 464.045  58.247 464.135  58.499  464.16  58.754 464.196  59.262 464.233
  60.175 464.282  60.248 464.284  61.291 464.387  61.414 464.405  61.799 464.463
  62.191 464.537   62.75464.6797  62.814 464.696  63.027 464.758  63.464 464.943
  63.555 464.981  63.646 465.018  63.731 465.052  64.465 465.251  64.783 465.334
  65.519 465.416   65.94 465.448  66.104 465.458  66.992 465.521  67.288  465.53
  68.198 465.627  68.779 465.731  69.109 465.787  70.019  465.89   70.93 465.949
  71.514 465.967   71.84 465.984  76.392  466.12   78.14 466.167  79.215 466.184
  81.505 466.238  85.588 466.396  89.183 466.524  91.391 466.587  92.326 466.613
  92.548  466.62  94.784 466.669  95.388 466.685  96.787 466.734 100.436 466.842
  100.52 466.845 102.978 466.938 105.379 467.016 107.167  467.09
#Mann= 3 ,0,0
       0     .01       0   21.72      .1       0   62.75     .01       0
Bank Sta=21.72,62.75
XS Rating Curve= 0 ,0
XS HTab Starting El and Incr=464.01,0.16, 20 
XS HTab Horizontal Distribution= 5 , 5 , 5 
Exp/Cntr=0.3,0.1

Type RM Length L Ch R = 1 ,4010    ,82.333,82.333,82.333
XS GIS Cut Line=2
449558.2818536886211737.13308618449592.4807680726211635.37046289
Node Last Edited Time=Apr/11/2022 19:45:12
#Sta/Elev= 61 
       0  465.12     1.7  465.14     4.6  465.24       7  465.27    11.2  465.38
    13.3  465.41    14.1  465.32    14.4  465.26    15.4  464.88    16.4   464.4
   17.04464.0231   17.25463.8994    17.3  463.87    17.5  463.74    18.6  463.52
    20.4  463.54      22  463.58    22.8  463.63    23.6   463.7    25.1  463.86
      26  463.97    26.7  464.03      27  464.05    28.3  464.07    33.4  463.99
    37.8  463.83    40.8  463.75    42.9  463.63    45.7   463.4    47.1  463.26
    48.1  463.22    50.3  463.27    52.4  463.26    53.4  463.22    54.5  463.16
    55.5  463.07    56.6  463.03    58.3  463.05    61.9  463.03    63.1   463.1
      64  463.26    64.6  463.49      65  463.65   65.43463.9041   65.63464.0222
    66.1   464.3    67.1  464.69    67.8   464.8    68.2  464.84    69.2  464.92
    70.9  464.95    73.5  464.96    79.8  465.17      83  465.22    90.3  465.51
    92.4  465.57    93.5   465.6    96.2  465.63     101  465.74   105.7  465.87
   107.4  465.94
#Mann= 3 ,0,0
       0     .01       0   17.04      .1       0   65.63     .01       0
Bank Sta=17.04,65.63
XS Rating Curve= 0 ,0
XS HTab Starting El and Incr=463.18,0.14, 20 
XS HTab Horizontal Distribution= 5 , 5 , 5 
Exp/Cntr(USF)=0,0
Exp/Cntr=0.3,0.1

Type RM Length L Ch R = 1 ,4009.67*,82.333,82.333,82.333
XS GIS Cut Line=2
449591.2104045386211744.91987338449617.6581208366211635.52644331
Node Last Edited Time=Apr/11/2022 19:45:12
#Sta/Elev= 105 
       0  464.66   1.865 464.677   2.443  464.68   2.487 464.681   6.218 464.774
   6.611 464.787   10.06 464.865  12.498 464.936  14.363 464.982  16.096 465.018
   16.29 465.021  18.156 465.057  19.113  465.07  19.959 465.033  20.263 465.017
  20.694 464.978  21.575 464.825  22.131 464.725  22.446 464.653  23.068 464.432
  23.192 464.377  23.568 464.161  23.627 464.124  23.689  464.09  24.311  463.68
   24.79 463.329  24.829 463.305   24.94463.2293  24.983   463.2   25.36 463.091
   25.83 462.981  27.216  462.91  28.086 462.875  28.449 462.878  29.065 462.902
  29.681  462.94  30.565 463.008  30.837 463.031   31.53 463.099  32.069 463.135
    32.3 463.146  33.043  463.15  33.301 463.152  35.521  463.11   37.23 463.073
      38 463.042  40.478 462.931  40.619 462.926   42.93 462.854  42.956 462.852
  44.547 462.768  46.704 462.608  47.782 462.511  48.553 462.482  50.247 462.509
  51.865 462.497  52.635 462.468  53.482 462.425  54.253 462.363    55.1 462.333
  56.351 462.347      59 462.333  59.988 462.372  60.425 462.393  61.279 462.492
  61.495  462.54  62.039 462.724  62.207 462.797  62.343 462.857  62.494 462.948
  62.683 463.031  62.798 463.095   63.02463.2282  63.193 463.332  63.556 463.549
  63.993 463.823  64.311 463.986  65.065 464.317  65.187 464.359  65.745 464.482