Geom Title=amont_lourdes
Program Version=6.00
Viewing Rectangle= 441413.47 , 453911.53 , 6220399.64 , 6201158.36 

Junct Name=amont           
Junct Desc=, 0 , 0 ,-1 ,0
Junct X Y & Text X Y=449846.53125,6211820.5,449846.53125,6211820.5
Up River,Reach=Gave            ,Gavarnie
Up River,Reach=Gave            ,Cauterets
Dn River,Reach=Gave            ,Pau_amont
Junc L&A=164.87,
Junc L&A=212,

River Reach=Gave            ,Gavarnie        
Reach XY= 12 
        449687.3       6211401.5        449788.5       6211435.6
     449818.6908      6211465.31     449818.6908      6211465.31
        449818.8       6211475.3        449833.9       6211495.2
        449869.7       6211590.8        449875.1       6211650.6
        449870.5       6211690.6         449856.       6211750.7
        449851.3       6211790.7     449846.5292     6211820.637
Rch Text X Y=449727.1073,6211506.28425
Reverse River Text= 0 

Type RM Length L Ch R = 1 ,4389    ,73.55,73.55,73.55
XS GIS Cut Line=2
449704.7179622556211507.57640882449865.0284880746211222.94343441
Node Last Edited Time=Feb/28/2022 22:17:16
#Sta/Elev= 295 
       0  463.69     2.4  463.69     5.8  463.59       7  463.57     9.3  463.57
    12.7  463.61    17.3  463.63    21.9  463.73    25.6  463.74    27.8  463.77
    33.4   463.7    39.1  463.69      41  463.64    42.6  463.51    43.7  463.23
    43.9  463.14    46.9  461.78    47.1  461.68   47.65461.5379    48.3  461.37
    48.4  461.36    48.5  461.34    49.4  461.23    50.6  461.12    52.9  460.99
      54  460.94    56.6   460.9    59.4  460.82    62.1   460.8      63  460.78
    68.9  460.76    73.3  460.65      77  460.53    79.2  460.49    81.6  460.48
    83.1  460.47      85  460.48      88  460.37    89.5  460.37    90.8  460.42
    90.9  460.46    91.9  460.82    92.4  461.12    92.7   461.4   92.87 461.536
    93.1  461.72    93.9  462.34    95.3  463.53    96.5  463.94    96.8  464.02
    98.3  464.13      99  464.16   101.2  464.21   104.5  464.24   105.5  464.23
   105.6  464.22   106.8  464.04   107.1  463.99   107.6  463.86   107.8  463.76
   108.6  463.48   109.1  463.25   109.6  463.06     110  462.88   110.3  462.76
   111.4  462.21   111.5  462.19   111.6  462.15   112.6  461.88     113  461.85
   113.7  461.85   114.4  461.81   115.9  461.83     116  461.84   117.2  461.95
   118.1     462   118.3     462   119.4  462.18   119.6  462.21   119.8  462.27
   120.6  462.49   121.6  462.69   122.9   462.9     124  463.04   126.3  463.31
   127.6  463.53   128.6  463.72     130  464.06   132.1  464.53   133.5  464.72
   134.4  464.92     135  464.97   135.5  465.05   135.7  465.07   136.1   465.1
   136.5  465.11   137.4  465.24   137.9  465.28   138.1  465.31     139   465.4
   139.4  465.41   140.1  465.48   140.9  465.46   141.3  465.47   142.2  465.48
   143.6  465.47   145.8  465.51   147.9  465.59   154.1   465.9   157.7  466.03
   159.9  466.09   164.2  466.19   166.5   466.2   166.6   466.2   166.7   466.2
   167.3   466.2   167.7  466.18     168  466.16   168.7  466.14   168.8  466.14
   168.8  466.13   168.9  466.08   169.5   465.9   169.9  465.76   170.2  465.64
   171.1  465.19   171.6  465.09   171.7  465.05   172.2     465   172.4  465.03
   172.8  465.08   173.2  465.16   174.6  465.56   176.1  465.68   176.8  465.71
   180.3  465.78     183  465.85   183.4  465.93   183.7  465.99   184.9   466.3
     185  466.32   185.6  466.51   186.4  466.73     187  466.81   187.1  466.82
   187.2  466.82   187.8   466.9   188.3  466.93   188.6  466.94   189.1  466.94
   189.3  466.94   189.5  466.94   190.6     467   190.8  467.01   191.1  467.02
   191.5  467.04   191.8  467.04   192.3  467.11   192.6  467.13   192.9  467.16
     193  467.17   193.1  467.21   193.7  467.33   195.2  467.39   195.9  467.52
   196.3   467.6   196.7  467.61   197.5  467.69   197.8  467.69   198.1  467.68
   198.6  467.74   198.9  467.73   199.3  467.71   199.6  467.67   199.8  467.66
   200.3  467.55   200.5  467.52   200.9  467.43   201.1   467.4   201.3  467.37
   202.1  467.17   202.5  467.06   203.1  467.03   203.2  467.02   203.3  467.01
     204  466.98   204.4  466.97   204.7  466.98   205.4  466.99   210.1  467.13
   210.6  467.18     211  467.21   211.3  467.24   211.3  467.25   211.5  467.26
   212.1   467.3   212.4  467.32   212.8  467.36   213.5   467.4   213.5  467.41
   213.6  467.41   214.3  467.48   215.7  467.58   215.9  467.59   216.5  467.65
     217   467.7   218.7  467.83   218.9  467.85   219.3   467.9   220.4  467.95
   229.7  467.93   230.8  467.95   231.2  467.96   231.9  467.98   236.3  468.36
     240  468.58   241.1  468.61   241.4  468.61     242  468.61   242.2   468.6
   242.3   468.6   242.5  468.61   242.9  468.61   243.4  468.62   243.6  468.62
   244.1  468.63   244.4  468.64   244.5  468.65   245.1  468.65   245.7  468.66
   245.8  468.66   246.1  468.66   246.6  468.66   246.8  468.65   247.3  468.64
   247.8  468.64   248.1  468.64   250.4  468.73     251  468.74   254.3  468.89
   254.7   468.9   254.9  468.91   255.4  468.92   255.7  468.93     256  468.94
   256.1  468.94   256.3  468.95   257.2  468.97   258.4  468.99   260.4  469.02
   264.1  469.12   264.2  469.12   264.5  469.13   266.2  469.21   269.3  469.38
   270.6  469.45   274.5  469.59     287  470.13     287  470.14   287.2  470.14
   287.7  470.16   288.2  470.17   288.4  470.18   288.9   470.2   289.2  470.21
   289.3  470.21   289.8  470.22   289.9  470.22   290.5  470.23   290.6  470.24
     291  470.25   291.4  470.26     295  470.42   300.8  470.62   305.4   470.8
   313.4  471.04     318  471.27   318.7  471.31   319.1  471.34   319.5  471.36
   321.4  471.51   321.5  471.51   322.2  471.59   322.6  471.63   323.6  471.76
   323.7  471.78   323.7  471.79     324  471.83   324.4   471.9   324.9  471.98
   325.1  472.03   325.6  472.12   325.9  472.16   326.6  472.23326.6732  472.24
#Mann= 3 ,0,0
       0     .01       0   47.65     .03       0   92.87     .01       0
Bank Sta=47.65,92.87
XS Rating Curve= 0 ,0
XS HTab Starting El and Incr=460.52,0.3, 39 
XS HTab Horizontal Distribution= 5 , 5 , 5 
Exp/Cntr(USF)=0,0
Exp/Cntr=0.3,0.1

Type RM Length L Ch R = 1 ,4315.50*,73.55,73.55,73.55
XS GIS Cut Line=2
449722.7120008676211533.74955589449990.986758359 6211327.6360227
Node Last Edited Time=Feb/28/2022 22:18:13
#Sta/Elev= 490 
       0 463.135   2.767 463.147   4.503 463.133   6.686 463.098    8.07 463.083
  10.721 463.074   11.92 463.076  14.641 463.068  19.944 463.036  23.133  463.04
  25.247 463.051  29.513 463.037  32.049 463.041  33.375 463.028  36.377 463.027
  38.505 463.011  41.763 463.003  45.076 463.009  45.471 463.005  47.266 462.966
  47.855 462.939  49.111 462.873  50.151  462.74  50.379 462.713   50.61 462.665
  51.652  462.45  54.068 461.992  54.299 461.944  54.478 461.925  55.682 461.773
  55.798 461.766  55.913 461.755   56.95 461.685  57.656 461.647  58.334 461.616
   60.04 461.563  60.985 461.531  62.253 461.494  63.219 461.479  65.251 461.458
  66.309 461.442  68.479 461.428  69.752 461.431  71.591 461.409  72.629  461.39
  74.432 461.372  77.169 461.358  79.431 461.376  80.966 461.373   82.29 461.374
  83.703 461.394  84.503 461.413  85.116 461.426  85.557 461.435   86.44 461.428
  86.617 461.425  87.146 461.403  87.411 461.389  87.853 461.333  88.382 461.255
  88.769 461.157   90.09460.8294  90.237 460.793  91.305 460.569  92.091 460.409
  92.091 460.394  93.062 460.182  93.945 460.015  94.828 459.883  94.916 459.883
  95.005 459.877  95.799 459.855   96.77 459.857  97.388 459.819  97.653 459.799
  97.742 459.794  97.991 459.751  98.625  459.63  99.596 459.519  100.39 459.457
  101.45 459.425   102.2 459.425 103.624 459.455 103.733 459.475 104.829 459.658
 105.376  459.81 105.705 459.951 106.143 460.113 106.892  460.38 107.019 460.425
  108.07460.8306 108.553 461.017 109.867 461.219 110.196 461.258 111.839  461.31
 111.859  461.31 112.605 461.332 113.883 461.358 114.803 461.393 114.895 461.419
 115.171 461.491 115.631 461.648 115.815 461.728 116.735 462.597 117.103 462.809
 117.747 463.231 118.483 463.639 118.667  463.69 119.219 463.772 119.679  463.83
 119.725 463.831 119.835 463.829 121.149 463.772 121.478 463.756 122.025 463.705
 122.244  463.66 122.623  463.61 122.899  463.59 123.121 463.581 123.543 463.541
 123.668 463.535 124.216 463.526 124.371 463.518 124.555 463.515 124.654 463.504
 124.983 463.475 125.475 463.408 125.751  463.34 126.187 463.185 126.297 463.161
 126.406 463.127 126.579 463.084 127.223 462.949 127.502 462.894  127.94 462.846
 128.418  462.81 128.694 462.795 128.707 462.795 129.338 462.769 129.473 462.766
 131.116 462.784 131.362 462.796  132.54 462.839 133.526 462.859 133.745 462.857
 134.214  462.89  134.49 462.896  134.95 462.893 135.169  462.89 135.226 462.893
 135.388 462.897 135.962 462.907 136.264   462.9 136.698 462.875 137.342 462.843
  137.36 462.845 138.078 462.903 138.814 462.952 139.988 463.036 140.286 463.056
 142.034 463.155 142.508 463.188 143.932 463.322 145.027 463.435 145.897 463.547
  146.56 463.635  148.86  463.92 149.761 463.996 150.394 464.044  151.38 464.158
 151.877 464.184 152.037 464.194 152.585 464.247 152.804 464.262 153.242 464.287
  153.68 464.302 154.666 464.391 155.213 464.423 155.432 464.443 156.418 464.505
 156.856 464.517 157.623 464.566 158.499 464.571 158.937 464.584 159.923 464.606
 160.157 464.609 161.457 464.631 163.866 464.698 166.166 464.783 167.516 464.841
 172.957 465.064 176.901   465.2 178.003 465.234 178.923  465.27 179.475 465.292
 179.935 465.307 180.947 465.357 181.591 465.399 181.867 465.412 182.235 465.436
 182.327 465.447 182.787 465.472 183.063 465.485 183.707 465.517  184.02 465.522
 186.539 465.544 187.416 465.548 187.854  465.54 188.182 465.531 188.949 465.524
 189.059 465.524 189.168 465.495 189.825 465.407 190.263 465.339 190.607 465.277
 191.578 465.063 192.125 465.018 192.235 464.999 192.783 464.978 193.002 464.995
  193.44 465.024 193.878 465.067 195.411  465.28 197.054 465.365 197.821 465.391
  199.07 465.421 199.346 465.429 199.806 465.438 199.898 465.444 200.266 465.457
 201.655 465.505 203.394 465.571 204.612 465.605 205.379 465.687 206.693 465.863
 206.803 465.875  207.46  465.98 208.336 466.104 209.006 466.156 209.103  466.16
 209.212  466.16  209.65 466.192  209.87 466.205 210.202 466.214 210.417 466.222
 210.662 466.229 210.938  466.23 211.398 466.225 211.732 466.225 212.869 466.253
 213.155 466.261 213.484 466.267 213.922 466.279 214.251 466.281 214.798 466.318
 215.127 466.329 215.456 466.345 215.565 466.351 215.675 466.371 216.332 466.434
 217.975 466.471 218.742 466.539  219.18 466.581 219.618  466.59 220.494 466.638
 220.823 466.641 221.149  466.64 221.699 466.685 221.977 466.681 222.253 466.685
 222.466 466.683 222.794 466.667 223.013 466.665 223.449 466.626 223.561 466.618
 223.633 466.615  223.78 466.614 224.001 466.607 224.218 466.599 224.461 466.598
 224.656 466.605 224.921   466.6 225.197 466.603 225.533 466.602 225.565 466.601
 225.841 466.651 225.971 466.665 226.485 466.773 226.628 466.821 226.847 466.888
 227.313 467.061 227.497 467.117 227.773 467.243 228.049 467.335  228.38 467.459
 228.508 467.506 228.784 467.648 229.147 467.816 229.428 467.949  229.52 467.985
  230.44 468.443 230.716 468.646 230.992 468.765  231.36 469.005 232.372 469.494
 232.372 469.524 233.108 469.849 233.292 469.926  233.66 470.006 234.295 470.138
 234.843 470.175 235.132  470.19 235.224 470.198   235.5  470.21 235.829 470.234
 236.236 470.257 236.788 470.294 237.252 470.331 237.524 470.347 238.019 470.373
 238.076  470.38 238.129 470.381 238.895  470.43  239.18 470.444 240.429 470.494
 240.648   470.5 241.853 470.564 242.032 470.571 243.715  470.66 243.934 470.674
 243.964 470.677 244.372 470.706 245.577 470.747 246.907 470.764 251.783 470.804
 255.763 470.867 256.968 470.897 257.406 470.909 257.763  470.92 258.173 470.934
 262.992 471.225 265.398  471.34 267.045 471.417  268.25 471.456 268.986  471.47
 269.236 471.477 269.455 471.478 269.564 471.481 269.783 471.492 270.221 471.504
 270.458 471.512 270.988 471.524 271.194 471.532 271.536  471.54 271.864 471.545
 271.974 471.551 272.206 471.555 272.298  471.56 272.666 471.565 273.034 471.573
 273.288 471.581 273.398 471.583 274.274 471.604 274.493 471.604 275.041 471.611
 275.917 471.632 277.358 471.691 277.818 471.709 278.002 471.717 278.094 471.719
 278.436 471.734 278.829 471.748 279.093 471.756 279.289 471.764 279.933 471.797
 280.301  471.81 280.761 471.835 280.945 471.843 281.037 471.845 281.313 471.856
 281.773 471.876 281.865 471.878 282.233 471.895 282.708 471.916 283.146 471.931
 283.365 471.941 283.913 471.959 284.241 471.971  284.57 471.984  284.68 471.986
 284.899 471.996 285.884 472.029 287.199 472.069 288.121 472.096 288.305 472.103
 288.673  472.11 288.949 472.122 289.389 472.132 289.593 472.138 289.685 472.139
 290.421 472.168 293.442 472.285 293.552 472.288  293.88 472.302 295.742 472.391
 299.138 472.566 300.562 472.639 301.368 472.673 302.012 472.704 302.288 472.713
 302.748 472.731   303.3  472.75 304.833  472.82 305.692 472.862 313.971  473.24
 315.811 473.336 315.903 473.338 315.995 473.345 316.547 473.361 316.823 473.376
 318.525 473.444 318.744 473.454 319.292 473.475 319.839 473.491 320.606 473.522
 320.779 473.528 320.871 473.529 321.044 473.533 321.423 473.543 321.592  473.55
 321.699  473.55 322.343 473.565 322.468  473.57 322.711 473.573 323.079 473.587
 323.355  473.59 323.631 473.601 323.815  473.61 324.275 473.624 324.551 473.634
 324.827 473.645 325.287 473.664 325.563  473.68 326.023 473.699 326.299  473.72
 326.575 473.736 326.759 473.749 327.127 473.777 327.587 473.805 328.139 473.843
 328.507 473.869 329.518  473.93  333.64 474.155 335.314  474.25 335.682 474.266
 336.142  474.29 336.326 474.298 336.878 474.328 337.246 474.344 337.614 474.361
 338.074 474.384 338.258 474.392  338.35 474.394 338.534 474.407 338.679 474.413
 339.086 474.426 339.178 474.432 339.546 474.442  340.19 474.466 347.181 474.731
 347.441 474.741  352.48 474.973 353.246 475.011 353.684 475.036 354.123 475.056
 354.725 475.092 356.204 475.187 356.313  475.19  357.08 475.252 357.518 475.284
 358.613  475.38 358.723 475.393 359.052 475.427  359.49 475.475 360.037  475.53
 360.256 475.561 360.804 475.622 361.133 475.651 361.899 475.708 361.979 475.715
#Mann= 3 ,0,0
       0     .01       0   90.09     .03       0  108.07     .01       0
Bank Sta=90.09,108.07
XS Rating Curve= 0 ,0
XS HTab Starting El and Incr=459.58,0.3, 54 
XS HTab Horizontal Distribution= 5 , 5 , 5 
Exp/Cntr=0.3,0.1

Type RM Length L Ch R = 1 ,4242    ,57.5,57.5,57.5
XS GIS Cut Line=2
 449740.706039486211559.92270296450116.9450286456211432.32861099
Node Last Edited Time=Feb/28/2022 22:17:16
#Sta/Elev= 282 
       0  462.58     5.1  462.62    13.5  462.57    26.2  462.39    37.8   462.3
    41.2  462.33    47.3  462.31    51.5  462.33    54.2  462.28    56.8   462.2
    58.5  462.17    61.7  462.21    65.3  462.12      68  462.09    71.6  462.03
    75.1  462.01      79  462.05    84.3  461.97    87.4  461.95    91.7  462.02
    93.2  462.05    94.8  462.12    96.4  462.22    96.9  462.25    97.9  462.26
      98  462.26    98.1  462.26    98.7  462.23      99  462.21    99.5  462.11
   100.1  461.97   102.2  461.08   104.3  460.33   104.3   460.3   105.4  459.88
  106.11459.6457   106.4  459.55   107.4  459.29   107.5  459.29   107.6  459.28
   108.5  459.24   109.6  459.24   110.3  459.16   110.6  459.12   110.7  459.11
   111.7   458.8   112.8  458.61   113.7  458.51   114.9  458.48     120  458.51
   125.4  458.49   127.6  458.53   128.6  458.58   128.7  458.63     129  458.77
   129.5  459.08   129.7  459.24  129.94459.6552   130.7  460.97   131.1  461.39
   131.8  462.23   132.6  463.04   132.8  463.14   133.4  463.31   133.9  463.43
   137.1  463.58   137.4  463.63   138.1  463.78     139  464.04   139.2  464.11
   140.2  464.28   140.5  464.27   141.4  464.06   142.1  463.95   143.4  463.77
   143.7  463.74   144.4  463.72   146.6  463.74   149.7  463.71     150  463.68
   150.8  463.56   151.6   463.4   152.4  463.18   152.9  463.05   153.1     463
   153.9  463.01   154.7     463   156.3  463.04   158.2  463.05   162.4  463.18
   166.6  463.35   168.9  463.41   172.6  463.57   177.9  463.74   185.9  464.03
   197.3  464.41   198.3  464.46   198.7  464.48   198.9  464.49   199.4  464.51
   200.5  464.59   201.2  464.66   201.5  464.68   201.9  464.72     202  464.74
   202.5  464.78   202.8   464.8   203.5  464.85   203.6  464.85   206.7  464.89
     211  464.92   216.2     465   220.2  465.11   220.5  465.12     221  465.13
   221.1  465.14   221.5  465.16   224.9  465.32     231   465.5   231.2   465.5
   231.7  465.51     232  465.51   232.1  465.51   232.3  465.51   232.8  465.52
   233.1  465.52   233.6  465.51   233.9  465.51   234.2  465.51   234.4  465.51
   234.8  465.51   235.2  465.51   241.9  465.56   243.7  465.59   243.8  465.59
   244.2   465.6   244.6  465.62   244.8  465.63   245.1  465.63   245.4  465.65
   245.8  465.66   246.7  465.68   246.9  465.69     247   465.7   247.3  465.74
   247.8   465.8   247.9  465.82   248.3  465.89   248.6  465.96     249  466.04
   249.3  466.21     250  466.51   250.4  466.77   250.9  467.13   251.1  467.25
   251.4  467.51   251.7   467.7   252.2  468.03   252.5  468.31   253.2   468.9
   253.3  468.97   254.3  469.86   254.6  470.26   254.9  470.49   255.3  470.96
   256.4  471.91   256.4  471.97   257.2   472.6   257.4  472.75   257.8   472.9
     258  472.97   258.5  473.15   259.4  473.18   259.5  473.19   259.6  473.19
   259.8  473.19   260.4  473.22   260.6  473.23   261.2  473.27     262  473.32
   262.6  473.35   263.8  473.39   266.9  473.43     269   473.5   272.2  473.58
   277.5  473.67     284  473.87   292.3  474.19   295.9  474.32   296.2  474.33
   297.8  474.41   298.2  474.42   298.6  474.44     299  474.45   299.4  474.45
   299.7  474.46   299.8  474.47   300.2  474.48   300.6  474.49   305.3  474.69
   305.8  474.71     306  474.72   306.1  474.72   306.5  474.74   306.9  474.76
   307.4  474.78   308.1  474.82   308.5  474.83     309  474.86   309.2  474.87
   309.3  474.87   309.6  474.88   310.1   474.9   310.2   474.9   310.6  474.92
     317  475.19   317.2   475.2   317.6  475.21   317.9  475.23   318.6  475.25
   318.7  475.25   318.7  475.26   318.9  475.26   319.5  475.29   331.4  475.87
   332.1  475.91   332.4  475.92   332.9  475.94   333.5  475.96   336.1   476.1
   345.1  476.53   347.1  476.65   347.2  476.65   347.3  476.66   347.9  476.67
   348.2  476.69   352.5  476.85   352.6  476.85   353.2  476.87   353.4  476.88
   353.5  476.88   354.2   476.9   354.6   476.9     355  476.92   355.3  476.92
   355.6  476.93   355.8  476.94   356.3  476.95   356.6  476.96   356.9  476.97
   357.4  476.99   357.7  477.01   358.2  477.03   358.5  477.06   358.8  477.08
     359   477.1   359.4  477.14   359.9  477.18   360.1   477.2   360.5  477.24
   360.9  477.28     362  477.37   368.3  477.82   368.7  477.84   369.2  477.87
   369.4  477.88   369.7   477.9     370  477.92   370.4  477.94   370.8  477.96
   371.3  477.99   371.5     478   371.6     478   371.8  478.02   372.4  478.04
   372.5  478.05   372.9  478.06   373.1  478.07   373.6  478.09   381.2  478.43
   389.4  478.78397.2858  479.19
#Mann= 3 ,0,0
       0     .01       0  106.11     .03       0  129.94     .01       0
Bank Sta=106.11,129.94
XS Rating Curve= 0 ,0
XS HTab Starting El and Incr=458.63,0.3, 69 
XS HTab Horizontal Distribution= 5 , 5 , 5 
Exp/Cntr(USF)=0,0
Exp/Cntr=0.3,0.1

Type RM Length L Ch R = 1 ,4124.50*,57.5,57.5,57.5
XS GIS Cut Line=2
449755.4284347086211600.81824526 450169.291322796211522.29880405
Node Last Edited Time=Feb/28/2022 22:18:13
#Sta/Elev= 490 
       0  461.89   1.352 461.875   4.152 461.871   5.289 461.878    6.18 461.877
   7.145  461.86   7.338 461.849   7.821 461.848   9.076 461.789  10.042 461.736
  11.007 461.719  13.999 461.722   14.87 461.719  15.642 461.734  16.897  461.74
  18.635 461.713  19.697 461.661  21.629 461.618  22.594 461.576  26.456 461.395
  27.422 461.369  28.387 461.355  30.319 461.348   32.25 461.346  36.112 461.377
  39.198 461.376  42.871 461.405  43.836 461.398   49.05  461.31  49.726 461.302
  53.405 461.283  54.554 461.265  56.205 461.227  57.451 461.192  58.901 461.161
  60.664 461.135  62.279 461.135  63.982 461.124  64.306 461.116  66.141 461.094
  67.715 461.085  70.003 461.088  70.515 461.082  73.865 461.033  74.248 461.027
  77.728 460.985  78.693 460.989  81.922 461.028  82.266 461.027  83.521 461.038
  87.418  461.03  88.349 461.032   90.28 461.016  90.633 461.012  95.092 461.014
  96.647 461.009  98.101 461.021  98.307 461.026  99.549 461.067  99.966 461.086
 100.484 461.107 101.625 461.128 101.729 461.129 102.351 461.122 102.662 461.116
 102.929 461.094  103.18 461.063 103.803 460.977 103.894 460.956  104.86 460.694
 105.825 460.332  105.98 460.257 106.791 459.895 107.756 459.474 108.158 459.316
 108.158 459.301 108.722 459.071  108.78459.0513 109.299 458.875 109.688 458.753
 110.336 458.608 111.373 458.411 111.619 458.389 112.513 458.328  113.55  458.28
 113.654 458.278  114.38 458.223 114.795 458.189 115.481 458.072 115.832 458.018
 116.972 457.917 117.906 457.862  119.15  457.84 122.123 457.883 123.052 457.926
 124.671 458.061  124.91  458.08  125.84 458.148 126.769 458.376 127.698 458.765
  128.24459.0497 128.627 459.253 129.556 459.837 130.485  460.18 131.414 460.303
 132.343  460.37 132.899 460.369 133.272 460.374 133.982 460.337 134.201 460.369
 134.415 460.386 134.956 460.468  135.13 460.509 135.173 460.513 136.152 461.233
 136.255 461.316 136.688 461.528 137.446 461.953 138.312 462.367 138.529 462.419
 139.178  462.51  139.72 462.575 140.798 462.608 141.727 462.578 143.184 462.443
 143.509  462.43 144.267 462.418 144.514 462.423 144.886 462.478 145.241 462.525
 145.458 462.562 146.373 462.742  146.54 462.764 146.865 462.773 147.023 462.763
 147.302 462.738 147.839 462.671 148.231 462.637 148.597  462.61 149.067  462.58
 150.005 462.529 150.329 462.517 151.087 462.514 152.876 462.538 153.469 462.542
 156.593 462.536 156.825 462.534  157.15 462.517 158.016 462.451 158.882 462.366
 159.748  462.25 160.506 462.156 160.588 462.155 161.372 462.167 162.238 462.169
  163.97 462.205 166.027 462.203   169.6 462.241 170.574 462.248 175.121 462.303
 177.033 462.313 177.611  462.32 181.617 462.396   182.7 462.411 187.355 462.461
 188.925 462.481 195.522 462.597 196.823 462.602 197.287  462.61 199.052 462.657
 199.424 462.662 199.889 462.675 200.353 462.682 201.282 462.686  201.84  462.68
 202.211  462.67  202.49 462.675  204.07 462.694 205.184 462.711 205.835 462.731
 206.857 462.752 207.786 462.761 208.358 462.773 208.808 462.785 209.644 462.815
 209.873  462.82 210.387 462.826 210.631 462.827 211.822 462.854 212.153 462.865
  212.58 462.883 212.905 462.892 213.338  462.91 213.446  462.92 213.987 462.938
 214.754  462.96  215.07 462.967 215.178 462.965 217.077 462.956 218.006 462.962
 218.534 462.969 219.864 462.984  220.05 462.985 220.793 462.997 222.652 462.998
 223.766 463.009 224.417 463.024 224.603 463.025 228.319 463.066 228.819 463.075
 231.106 463.129  233.15 463.145 233.474 463.151 234.016 463.158 234.124 463.163
 234.823 463.181 236.681 463.246 238.238 463.297 241.326 463.372 244.842 463.477
   245.6 463.494 246.249 463.505 246.715 463.534 246.901  463.54 247.115 463.557
 247.657 463.581 248.016   463.6 248.666  463.68 249.688 463.766 250.246 463.793
 250.617 463.809 251.546 463.857 251.639 463.858 252.661 463.856 253.405 463.864
 254.334 463.847 254.612 463.843 256.642  463.83 257.586 463.827 258.699 463.828
 259.132  463.83 259.782  463.84 260.107 463.838 260.432 463.846 261.839 463.852
 262.056 463.855 262.489 463.878  263.03 463.904 263.571 463.945 263.896  463.98
 264.329 464.019 264.654 464.104 265.412 464.253 265.845 464.382 266.386 464.561
 266.603 464.621 266.927 464.751 267.252 464.845 267.793 465.013 268.118 465.155
 268.876 465.454 268.984  465.49  269.85 465.851 270.067  465.94 270.392 466.141
 270.716 466.256  271.15 466.492  272.34 466.969  272.34 466.999 273.206 467.315
 273.423 467.391 273.856 467.469 274.073 467.505 274.614 467.599 275.588  467.62
 275.697 467.626 276.021 467.628 276.887 467.654 278.403 467.709 279.053 467.725
 280.348 467.745  281.37 467.751 281.556 467.757 282.485 467.763 283.708 467.762
 285.981 467.782 289.446   467.8 289.918 467.804 290.661 467.795 290.847 467.796
 291.498 467.781 291.683 467.783  292.52 467.809 293.077 467.803 293.449 467.801
 294.285 467.948 294.378 467.959 294.471 467.984 295.214 468.055 295.307 468.097
 295.493 468.129 296.236 468.305 296.515 468.349 296.886 468.444 297.165 468.488
 297.816 468.617 298.094 468.676 298.466 468.762 299.023  468.91 299.488 469.051
 299.952 469.228 300.417 469.434 300.417 469.449 300.882 469.656 301.346 469.803
 301.439 469.859 301.811 469.999 302.182 470.099  302.74 470.279 303.018 470.349
 303.483 470.447 303.669 470.506 304.412 470.639 305.434 470.837 305.527 470.859
 305.713 470.882 306.456 470.985 306.549 470.987 307.385 471.017 308.314 470.924
 308.407 470.925 309.151 470.888 309.243 470.885 310.173 470.902 310.451 470.917
 311.102 470.968  311.38 470.998 311.752 471.044 312.124 471.075 312.402 471.115
 312.681  471.15 313.053 471.191 313.424 471.242 313.982 471.311 314.353 471.362
 314.446 471.369 315.283 471.468 315.429 471.484 317.048 471.682 317.419 471.718
 317.884 471.777  318.46 471.823 318.893 471.856 319.218 471.888 319.371 471.906
 319.556 471.918 319.649 471.929 320.192 471.961 320.486 471.981 321.415 472.039
   321.6 472.053 322.251  472.09  325.28 472.249 326.038 472.287 326.339 472.299
  326.58 472.314 326.989 472.334 327.361 472.346 328.312 472.393 328.745 472.408
 329.286 472.434 330.477 472.477 330.585 472.478 330.984 472.494 331.913 472.527
 332.285 472.545  332.75 472.564 333.493 472.588 333.679 472.592 334.329 472.615
 334.515 472.623 335.351 472.649 338.164  472.74 338.597 472.751 338.921 472.765
 339.679 472.785 339.787 472.786 341.297 472.839 351.146 473.166 353.537 473.258
 354.295  473.29  355.81 473.338 357.185 473.394 358.625 473.455 367.033 473.786
 368.369 473.835  370.75 473.935   371.4 473.949 371.725 473.964  376.38 474.112
 377.138 474.133 377.253 474.138  378.22 474.155 378.653 474.155 379.086 474.165
 379.411 474.158 379.736 474.155 380.041 474.156 380.494 474.133 381.156 474.105
 381.685 474.096 381.899 474.097 382.085 474.091 382.549  474.09   383.2 474.097
 383.757 474.111 384.315 474.132 384.686 474.154 385.474  474.19  386.08 474.218
 386.544 474.245 386.916 474.258 387.102 474.269 387.845 474.304 388.124 474.313
 389.146 474.362 390.261 474.419 391.097 474.456 391.283 474.467 392.119 474.505
 392.212 474.513 393.048 474.566 393.485 474.592 393.918 474.613  394.07 474.629
 394.813 474.744 395.092 474.793 395.742 474.935 395.835 474.967 396.114 475.003
 396.579 475.076 396.764 475.111 397.058 475.141 397.274 475.171 397.694 475.216
 398.032 475.239 398.344 475.249 398.623 475.269 399.087 475.277 399.645 475.289
 400.016 475.311 400.109 475.313 400.574 475.333 400.945 475.366 402.711 475.487
 403.361 475.526 404.011 475.584  404.29   475.6 404.476 475.619 405.033 475.685
 405.219 475.699 405.312 475.711 406.148 475.773 406.985  475.83 407.077 475.832
 407.451 475.857 408.936 475.939 409.029 475.946 409.679 475.979 410.051 475.996
 410.515 476.025 411.723 476.089  412.28  476.12 412.652 476.143 413.024 476.155
 413.581 476.176 414.046  476.18 414.975 476.198 416.329 476.237  418.97 476.323
 420.085  476.35 421.014 476.378 421.571 476.391 421.943 476.395 422.779  476.43
 422.872 476.432 423.708 476.477 423.801 476.479 424.544 476.507 424.866 476.515
#Mann= 3 ,0,0
       0     .01       0  108.78     .03       0  128.24     .01       0
Bank Sta=108.78,128.24
XS Rating Curve= 0 ,0
XS HTab Starting El and Incr=457.99,0.3, 62 
XS HTab Horizontal Distribution= 5 , 5 , 5 
Exp/Cntr=0.3,0.1

Type RM Length L Ch R = 1 ,4007    ,55.3,55.3,55.3
XS GIS Cut Line=2
449770.1508299366211641.71378756450221.6376169346211612.26899711
Node Last Edited Time=Feb/28/2022 22:17:16
#Sta/Elev= 399 
       0   461.2     1.4  461.16     4.3  461.13     6.4  461.14     7.4  461.11
     7.6  461.09     8.1  461.09     9.4  460.98    10.4  460.88    11.4  460.85
    15.4  460.88    16.2  460.92    17.5  460.95    19.3  460.92    20.4  460.83
    22.4  460.77    23.4   460.7    27.4  460.39    28.4  460.35    29.4  460.33
    31.4  460.33    33.4  460.34    37.4  460.43    44.4  460.48    45.4  460.47
    51.5  460.29    56.5  460.22    59.5  460.14    64.5  460.08    66.6  460.03
    68.5  460.03    72.5  460.08    76.5  460.03    80.5  459.96    81.5  459.96
    85.2  460.01    86.5  460.05    91.5   460.1    93.5  460.08    98.4  460.01
   101.6  459.93   103.1  459.94   106.6  460.03   107.6  459.98   108.6  459.85
   109.6  459.52   110.6  458.99  111.17458.6993   111.6  458.48   112.6  458.05
   113.6  457.75   115.6   457.5   117.6  457.32   119.6  457.24   123.4   457.2
   126.6  457.27   127.6  457.35   129.6  457.65   130.6  457.79   131.6  458.25
  132.18458.7024   132.6  459.03   133.6  460.01   134.6  461.18   135.6  461.87
   136.6   462.1   137.6  462.22   138.6   462.2   139.6  462.06   140.6  461.81
   140.6  461.79   140.7  461.78   141.7  461.66   142.7  461.67   146.7  461.74
   147.7  461.64   150.7     461   151.1  461.01   151.3  461.01   151.7  461.01
   152.7  461.23   152.9  461.25   153.4  461.29   153.7   461.3   154.7  461.27
   155.6  461.27   159.7  461.34   163.7  461.36     168  461.31   171.7  461.37
   177.7  461.33   185.7  461.23   191.8  461.22   198.5  461.17   205.6  461.18
     206  461.17     207  461.15   207.5  461.15   208.4  461.17   209.4  461.19
   209.8  461.19   210.3   461.2   210.8   461.2   211.3  461.19   211.8  461.18
   212.2  461.16   212.4  461.15   212.8  461.12   213.1  461.12   214.8  461.11
   215.6  461.11   215.8  461.11     216  461.11   216.7  461.13   216.8  461.13