Geom Title=amont_lourdes
Program Version=6.00
Viewing Rectangle= 441413.47 , 453911.53 , 6220399.64 , 6201158.36 

Junct Name=amont           
Junct Desc=, 0 , 0 ,-1 ,0
Junct X Y & Text X Y=449846.5292,6211820.637,449846.5292,6211820.637
Up River,Reach=Gave            ,Gavarnie        
Up River,Reach=Gave            ,Cauterets       
Dn River,Reach=Gave            ,Pau_amont       
Junc L&A=360.5,0
Junc L&A=62.4,0

River Reach=Gave            ,Gavarnie        
Reach XY= 12 
        449687.3       6211401.5        449788.5       6211435.6
     449818.6908      6211465.31     449818.6908      6211465.31
        449818.8       6211475.3        449833.9       6211495.2
        449869.7       6211590.8        449875.1       6211650.6
        449870.5       6211690.6         449856.       6211750.7
        449851.3       6211790.7     449846.5292     6211820.637
Rch Text X Y=449727.1073,6211506.28425
Reverse River Text= 0 

Type RM Length L Ch R = 1 ,4421    ,128,128,128
XS GIS Cut Line=2
449700.8900337286211486.96349072449744.2642666066211335.15367564
Node Last Edited Time=Apr/10/2022 11:05:06
#Sta/Elev= 88 
       0  464.02     5.7     464     6.7  464.04     9.8  464.09    16.1  464.12
    19.5  464.06    22.7  464.04    25.4  463.98    27.5  463.89    28.4  463.77
    28.6  463.72      30  463.23    30.6  462.95    31.7  462.45    32.7  462.02
    33.2  461.84    33.8  461.68    34.8  461.46    38.1  461.29    41.3  461.08
    42.9  461.06    46.2  461.09    53.5  461.07    60.7  461.01      65  461.01
    68.1  460.96    73.3  460.98    73.7  461.04    74.3  461.16    75.4  461.48
    75.5  461.55    76.4  462.02    76.9  462.33      77  462.37    77.4  462.71
    79.5  464.23    80.1  464.55    80.6  464.74    81.8  465.05    82.3  465.13
    83.7  465.28    84.2  465.31    84.7  465.33    89.8  465.31      92  465.27
      93  465.27    97.1  465.34   102.4  465.39   105.5  465.47   108.6  465.65
   109.7  465.69   110.9  465.71   112.5  465.62   112.8  465.57   113.8  465.24
   114.1  465.11   114.9   464.6   115.7  464.15   115.9  464.06     117  463.67
   117.4  463.57   117.7  463.53     118  463.47   118.2  463.46   118.7  463.45
     119  463.44   122.2  463.41   131.9  463.42   133.5  463.48   134.6  463.82
   135.2  464.07   135.7  464.34   136.9   465.1   137.8   465.6   138.1  465.74
   138.4  465.87   138.8  466.01     140  466.18   140.8  466.22     144  466.25
     145  466.28   145.4   466.3   145.7  466.32   146.5  466.37   149.8  466.66
   151.3  466.74   154.4  466.68157.8846  466.75
#Mann= 1 ,-1,0
       0   -9999       0
Bank Sta=0,157.8846
XS Rating Curve= 0 ,0
XS HTab Starting El and Incr=461.11,0.28, 20 
XS HTab Horizontal Distribution= 5 , 5 , 5 
Exp/Cntr(USF)=0,0
Exp/Cntr=0.3,0.1

Type RM Length L Ch R = 1 ,4293    ,96.2,96.2,96.2
XS GIS Cut Line=2
449750.1031056486211525.33300442449889.4011227756211436.91629893
Node Last Edited Time=Apr/10/2022 11:05:06
#Sta/Elev= 82 
       0  462.82     3.1  462.81    14.7  462.67    19.4  462.69    23.4  462.67
    29.1  462.61    40.7  462.72    42.2  462.77    44.4  462.89    46.7  462.97
    49.4  462.98    51.4  462.94    52.3  462.95    52.6  462.93    53.8  462.78
      55  462.37    55.7  462.15    56.7  461.83    57.5  461.58    59.6  461.07
      61  460.66    61.8  460.41    62.1   460.3    62.5  460.18    63.9  459.82
    64.4  459.75    65.6  459.66    69.2  459.64    71.2  459.55    72.6  459.37
    74.1  459.11    75.5   458.9      77  458.84    85.7  458.82    89.3  458.85
    91.7  458.83    92.9   458.8      94   458.8    95.2  458.85    96.4  458.86
    98.7   458.8   100.2   458.8   101.1  458.85   101.6  458.89   102.3  459.04
   103.1  459.61   103.5  460.05   104.2  461.18   104.7     462   105.9  463.34
   105.9  463.38   106.1  463.43   107.1  463.95   107.4  464.05   107.9  464.17
   108.1  464.21   108.3  464.24   112.5  464.36     113  464.39   114.2  464.53
   115.4  464.59   117.2  464.57   120.1  464.61   122.5   464.6   123.3  464.63
   124.8  464.73     126   464.7   126.2  464.69   126.6  464.66     127  464.62
   127.2  464.59   127.7  464.53   129.1  464.49   136.4  464.59     139   464.6
   140.7  464.66   150.8  464.89   153.8  465.01   156.7  465.11   159.6  465.22
   161.7   465.3164.9892  465.43
#Mann= 1 ,-1,0
       0   -9999       0
Bank Sta=0,164.9892
XS Rating Curve= 0 ,0
XS HTab Starting El and Incr=458.95,0.3, 22 
XS HTab Horizontal Distribution= 5 , 5 , 5 
Exp/Cntr(USF)=0,0
Exp/Cntr=0.3,0.1

Type RM Length L Ch R = 1 ,4196    ,120.3,120.3,120.3
XS GIS Cut Line=2
449788.4726193476211589.56023387449946.1212734616211540.34716195
Node Last Edited Time=Apr/10/2022 11:05:06
#Sta/Elev= 122 
       0  461.26     3.3  461.26     6.5   461.2    10.5  461.22    11.6  461.21
    14.7  461.14    25.2  461.12    28.3  461.14    30.4  461.19    32.5  461.26
    34.6  461.29    37.7  461.26    39.8  461.27    40.9  461.27      44  461.19
    46.1  461.17    47.2  461.18    49.3  461.23    51.4  461.23    56.6  461.13
    58.7  461.12    60.7  461.13    61.8  461.15      64  461.22      65  461.28
      67  461.32    68.1  461.31    71.3  461.18    71.5  461.16    71.9  461.13
    73.4  460.98      74  460.78    74.4  460.66    75.1  460.33    76.7  459.55
    77.6  459.12    78.6  458.67    79.1   458.5    79.6  458.34    79.9  458.29
    80.7   458.2    85.9  458.25    88.3  458.25    92.2  458.19    97.5   458.2
    98.5  458.22    98.9   458.4    99.1  458.44    99.6   458.7   100.6   459.6
   100.9  459.92   101.6  460.94     102  461.35   102.3  461.74   102.7  462.13
   103.5  462.53   103.7  462.63   103.9  462.64   104.7  462.67   104.8  462.68
   105.5  462.74   105.8  462.79   106.9  462.96   107.1     463   107.9  463.25
   108.1   463.3   108.6  463.53     109  463.62     110  463.59   110.2  463.52
     111  463.21   111.1   463.2   112.1     463   114.2  462.99   117.4  463.05
   118.2  463.04   119.5  462.94   119.8  462.83   120.5  462.58   121.4     462
   121.5  461.93   121.8  461.86   122.2  461.74   122.6  461.63     123  461.63
   123.3  461.67   124.7  461.75   125.7  461.77   127.8  461.86   129.9     462
     132  462.19   132.5  462.22   132.6  462.23   133.1  462.26   136.2  462.38
   140.4  462.32   141.4  462.35   142.2   462.4   142.5  462.42   143.1  462.45
   143.5  462.47   143.8  462.48   144.5  462.48   144.6  462.48   145.4   462.5
   145.6  462.51   146.2  462.52   146.7  462.52     147  462.53   147.9  462.53
   148.6  462.55   151.2  462.52   151.8  462.52   151.9  462.52     153  462.55
     155  462.57   157.2  462.57   158.2  462.59   158.3   462.6   158.9  462.62
   159.7  462.64165.1515  462.68
#Mann= 1 ,-1,0
       0   -9999       0
Bank Sta=0,165.1515
XS Rating Curve= 0 ,0
XS HTab Starting El and Incr=458.34,0.26, 20 
XS HTab Horizontal Distribution= 5 , 5 , 5 
Exp/Cntr(USF)=0,0
Exp/Cntr=0.3,0.1

Type RM Length L Ch R = 1 ,4076    ,88.1,88.1,88.1
XS GIS Cut Line=2
449820.1691741436211683.81577839449975.3154686686211687.98637771
Node Last Edited Time=Apr/10/2022 11:05:06
#Sta/Elev= 88 
       0  460.08     4.3  460.01     5.3  460.02     6.3  460.07     8.3  460.13
    10.3  460.12    11.3   460.1    13.3     460    14.3  459.92    15.3  459.88
    17.3  459.85    19.2  459.78    21.3  459.73    23.3  459.75    26.4  459.83
    30.3  459.88    33.3  459.87    43.3  459.91      51  459.82    55.4  459.71
    56.4   459.7    57.4  459.57    58.4   459.3    59.4   458.9    60.4  458.33
    61.4  457.87    62.4  457.55    63.4  457.31    64.3  457.22    65.3  457.14
    66.5  457.09    69.4  457.05    70.4  457.01    71.4  456.99    74.4  457.02
    77.4  456.99    78.4  456.99    79.4  457.05    80.4  457.17    81.4  457.28
    81.8  457.33    82.4  457.38    83.4  457.41    84.4  457.37    85.4  457.89
    86.4  459.09    86.7  459.44    87.4  460.08    88.4  460.87    89.4  461.41
    89.6  461.47    90.4  461.62    91.4  461.55    92.4  461.22    92.6  461.18
    93.4  461.04    95.2  461.03    98.3  461.06    99.4  461.05   100.4  461.03
   101.4  460.85   102.4  460.49   103.4  460.35   106.4  460.51   107.4  460.54
   108.4  460.55   110.1  460.53   112.7  460.48   113.4  460.48   116.4  460.54
   119.4  460.49     123  460.51   126.4  460.57   128.4  460.57   129.4   460.6
   130.4  460.67   132.4  460.71   134.5  460.71   137.1  460.64   138.4  460.59
   142.4  460.58   143.2  460.57   143.4  460.56   144.4  460.53   146.6  460.51
   150.8   460.5   153.9  460.53155.2023  460.53
#Mann= 1 ,-1,0
       0   -9999       0
Bank Sta=0,155.2023
XS Rating Curve= 0 ,0
XS HTab Starting El and Incr=457.14,0.22, 20 
XS HTab Horizontal Distribution= 5 , 5 , 5 
Exp/Cntr(USF)=0,0
Exp/Cntr=0.3,0.1

Type RM Length L Ch R = 1 ,3988    ,,,
XS GIS Cut Line=2
449826.0080131846211768.89600442449926.9365166116211778.07132292
Node Last Edited Time=Apr/10/2022 11:05:06
#Sta/Elev= 75 
       0  460.64      .5  460.64     1.5  460.54     1.9  460.46     2.1  460.46
     2.5   460.4     3.5  460.18     3.8   460.1     4.3   459.9     4.5  459.84
     5.5  459.74     5.6  459.76     6.5  459.73     8.5  459.87     9.5  459.88
    11.5  459.86    15.6   459.7    18.6  459.54      24  459.28    25.6  459.24
    26.6  459.23    27.7  459.18    28.6  459.06    29.5  458.77    29.6  458.75
    30.6  458.16    31.6  457.71    34.6  456.77    35.6  456.52    36.6  456.34
    37.6  456.24    38.7  456.22    39.7  456.23    40.7  456.27    44.7  456.31
    48.7  456.32    50.7  456.38    51.7  456.47    51.8  456.48    53.7  456.84
    54.7   457.1    55.7  457.25    56.7  457.31    57.7  457.34    59.7  457.36
    60.8  457.33    61.8  457.39    62.7   457.5    63.8  457.56    65.8  457.64
    69.5  457.85    71.8  457.94    73.8  457.99    78.8  458.01    79.2  458.13
    79.4  458.18    79.8   458.3      82   459.5    82.8  459.94    83.8  460.27
    84.8  460.51    84.8  460.52    85.8  460.47    86.8  460.26    87.1  460.21
    87.5  460.14    87.9  460.08    88.5     460    88.9  459.96    89.4  459.94
    89.9  459.92    94.9  460.02    95.9  460.01    97.1     460101.3447  459.91
#Mann= 1 ,-1,0
       0   -9999       0
Bank Sta=0,101.3447
XS Rating Curve= 0 ,0
XS HTab Starting El and Incr=456.37,0.21, 20 
XS HTab Horizontal Distribution= 5 , 5 , 5 
Exp/Cntr(USF)=0,0
Exp/Cntr=0.3,0.1

River Reach=Gave            ,Cauterets       
Reach XY= 11 
        449157.2       6211441.8        449238.4       6211471.1
        449273.6       6211500.8        449314.1       6211565.4
        449354.4        6211610.        449394.5       6211629.6
        449459.5       6211639.1        449585.8        6211693.
        449680.9       6211712.2         449736.       6211731.7
     449846.5292     6211820.637
Rch Text X Y=449329.5323,6211536.50925
Reverse River Text= 0 

Type RM Length L Ch R = 1 ,4457.12 ,184.8,184.8,184.8
XS GIS Cut Line=2
449157.0701995686211507.75012384449199.6103125836211390.97334302
Node Last Edited Time=Apr/10/2022 11:05:06
#Sta/Elev= 74 
       0  477.42     1.3  477.38     2.9  477.38     7.6  477.31     8.3  477.31
     9.8  477.35    10.9  477.42      12  477.51      13  477.54    15.2  477.51
    16.9  477.52    18.8  477.55    21.6  477.64    23.2  477.67    26.9  477.69
    30.1  477.75    31.1  477.75    35.4  477.78    37.2  477.83    38.8  477.97
    39.6  477.99    39.9  477.92    40.3  477.82    40.7  477.64    41.8  476.74
    42.2  476.45    42.8  475.88    43.2  475.66    43.4  475.51    43.9  475.33
      45   475.1      46  475.08    47.1  475.08    50.9  475.17    57.5  475.17
    58.8  475.19      59  475.24    59.9  475.52    60.6   475.9    62.2  476.88
    63.1  477.35    63.7  477.62    64.1  477.76    65.2  477.98    65.5  478.01
    66.3  478.06    67.3  478.11    68.4  478.18    71.7  478.45    74.8  478.67
    75.8   478.7    76.2  478.71    76.9   478.7      78  478.65      79  478.63
    80.9  478.65    83.2  478.79    84.3  478.88    86.5  479.02    88.4  479.12
    89.7  479.16    93.4  479.24    96.5  479.23   107.4   479.6     112   479.7
   112.9  479.73   115.2  479.86   116.3  479.94   116.8  479.99   116.9     480
   117.3  480.05   120.5  480.47   121.4  480.55124.2839   480.6
#Mann= 1 ,-1,0
       0   -9999       0
Bank Sta=0,124.2839
XS Rating Curve= 0 ,0
XS HTab Starting El and Incr=475.23,0.27, 20 
XS HTab Horizontal Distribution= 5 , 5 , 5 
Exp/Cntr(USF)=0,0
Exp/Cntr=0.3,0.1

Type RM Length L Ch R = 1 ,4457.1  ,170.2,170.2,170.2
XS GIS Cut Line=2
449268.0081413526211598.66918891449371.4390043686211520.26192179
Node Last Edited Time=Apr/10/2022 11:05:06
#Sta/Elev= 72 
       0  472.58     1.9  472.65     4.4  472.67     5.5  472.69     8.1  472.61
    11.2  472.63    12.6  472.62    18.2  472.49    21.9  472.45      24  472.44
    26.9  472.49    29.7  472.55    33.2  472.69    34.7  472.74    35.8  472.75
    38.3  472.75    39.5  472.61    39.7  472.57    41.7  471.49      42  471.25
    42.6  470.96    43.2  470.84    43.3  470.81      44  470.69    44.5  470.64
    45.8  470.63    46.9  470.63    49.7  470.82    51.1  470.86    52.1  470.84
    53.3  470.77    54.9  470.63    56.9  470.41    58.3   470.3    59.7  470.31
    62.6  470.28    66.5  470.29    68.4   470.3    70.9  470.36    72.1  470.42
    72.6  470.44    73.4  470.51      74  470.63    74.3  470.71    74.7  470.81
    75.4  471.09    75.9  471.32    77.2  472.08    78.1  472.75    78.3  472.88
    78.4  472.97    79.7  473.44    80.9  473.52    82.2  473.56    84.7  473.59
    91.1   473.6      94  473.55    98.3  473.42    99.7  473.54   101.1  473.82
   102.5  473.94   104.6  473.98   107.9  474.03   109.5  474.07   111.2   474.1
     114  474.09   118.6  474.13   121.1   474.1     124  474.13   126.1  474.14
   128.2   474.1129.7908  473.95
#Mann= 1 ,-1,0
       0   -9999       0
Bank Sta=0,129.7908
XS Rating Curve= 0 ,0
XS HTab Starting El and Incr=470.43,0.19, 20 
XS HTab Horizontal Distribution= 5 , 5 , 5 
Exp/Cntr(USF)=0,0
Exp/Cntr=0.3,0.1

Type RM Length L Ch R = 1 ,4457    ,231.7,231.7,231.7
XS GIS Cut Line=2
449451.5145112196211692.92473344449464.0263091656211586.99151083
Node Last Edited Time=Apr/10/2022 11:05:06
#Sta/Elev= 52 
       0  468.23     3.4  468.14     6.5  468.09     8.5   468.1    11.5  468.19
    14.5  468.22    18.6  468.17    22.6  468.21    25.6   468.2    26.6  468.22
    27.4  468.17    27.6  468.14    28.6   468.1    29.6  467.44    30.6  466.12
      31  465.91    31.6  465.56    33.7  465.52    38.7  465.55    41.8  465.53
    42.7  465.54    44.7  465.52    45.7  465.59    46.7  465.77    47.8  465.98
    48.8  466.22    49.8  466.34    50.8  466.36    52.6  466.34    54.8  466.23
    55.8  466.25    57.8  466.41    58.7  466.53    58.8  466.54    58.9  466.55
    59.8  466.61    61.6  466.67    62.9  466.74    63.9     467    64.9  467.46
    65.9  467.76    66.9  467.93    67.9  468.01    72.9  468.13      76  468.18
      83  468.44    90.4  468.65    93.1  468.76    95.3  468.88    99.4  469.05
   102.1   469.2106.6695  469.39
#Mann= 1 ,-1,0
       0   -9999       0
Bank Sta=0,106.6695
XS Rating Curve= 0 ,0
XS HTab Starting El and Incr=465.67,0.19, 20 
XS HTab Horizontal Distribution= 5 , 5 , 5 
Exp/Cntr(USF)=0,0
Exp/Cntr=0.3,0.1

Type RM Length L Ch R = 1 ,4010    ,89.4,89.4,89.4
XS GIS Cut Line=2
449558.2818536886211737.13308618449592.4807680726211635.37046289
Node Last Edited Time=Apr/10/2022 11:05:06
#Sta/Elev= 57 
       0  465.12     1.7  465.14     4.6  465.24       7  465.27    11.2  465.38
    13.3  465.41    14.1  465.32    14.4  465.26    15.4  464.88    16.4   464.4
    17.3  463.87    17.5  463.74    18.6  463.52    20.4  463.54      22  463.58
    22.8  463.63    23.6   463.7    25.1  463.86      26  463.97    26.7  464.03
      27  464.05    28.3  464.07    33.4  463.99    37.8  463.83    40.8  463.75
    42.9  463.63    45.7   463.4    47.1  463.26    48.1  463.22    50.3  463.27
    52.4  463.26    53.4  463.22    54.5  463.16    55.5  463.07    56.6  463.03
    58.3  463.05    61.9  463.03    63.1   463.1      64  463.26    64.6  463.49
      65  463.65    66.1   464.3    67.1  464.69    67.8   464.8    68.2  464.84
    69.2  464.92    70.9  464.95    73.5  464.96    79.8  465.17      83  465.22
    90.3  465.51    92.4  465.57    93.5   465.6    96.2  465.63     101  465.74
   105.7  465.87107.3555  465.94
#Mann= 1 ,-1,0
       0   -9999       0
Bank Sta=0,107.3555
XS Rating Curve= 0 ,0
XS HTab Starting El and Incr=463.18,0.14, 20 
XS HTab Horizontal Distribution= 5 , 5 , 5 
Exp/Cntr(USF)=0,0
Exp/Cntr=0.3,0.1

Type RM Length L Ch R = 1 ,4009    ,104.9,104.9,104.9
XS GIS Cut Line=2
449672.2693376916211761.70959382449683.2146585346211638.87877103
Node Last Edited Time=Apr/10/2022 11:05:06
#Sta/Elev= 75 
       0  462.73      .4  462.76     1.1  462.73     2.2  462.77     3.2  462.73
     4.2  462.72     6.2  462.68     7.2  462.68     8.2  462.71     9.2  462.87
    10.2  462.94    11.3  463.08    12.3  463.09    14.3  463.05    16.3  463.08
      17  463.12    17.3  463.13    18.3  463.19    18.7  463.24    18.8  463.27
    19.3  463.31    20.3  463.32    21.3  463.29    22.3  463.37    22.5  463.43
    23.1   463.7    23.3  463.74    25.3  464.07    26.3   464.1    27.3  464.08
    28.3   464.1    29.3  464.24    32.3   464.5    34.3  464.61    36.4  464.66
    37.4  464.66    38.4  464.01    39.4  462.74    40.4  461.75    41.4  461.09
    42.4  460.74    43.4  460.65    44.4   460.6    47.4  460.55    49.4  460.55
    51.4   460.5    53.4  460.49    54.4   460.5    55.7  460.58    56.4  460.63
    57.4  460.78    58.4  461.11    59.4  461.67    60.6  462.21    61.5  462.56
    62.5  462.85    63.5  463.01    64.5  463.08    66.8  463.11    67.2   463.1
    68.5  463.11    69.5  463.07    71.5  463.06    73.5  463.08    75.5  463.07
    79.5  462.95    83.5  462.88      88  462.94    91.6     463    97.6  463.04
   104.6  463.22     108  463.21   111.7  463.17   119.7  463.15123.3175   463.2
#Mann= 1 ,-1,0
       0   -9999       0
Bank Sta=0,123.3175
XS Rating Curve= 0 ,0
XS HTab Starting El and Incr=460.64,0.2, 20 
XS HTab Horizontal Distribution= 5 , 5 , 5 
Exp/Cntr(USF)=0,0
Exp/Cntr=0.3,0.1

Type RM Length L Ch R = 1 ,4008.781,157.5,157.5,157.5
XS GIS Cut Line=2
449657.0675031876211760.49344706 449668.012824036211635.83840413
Node Last Edited Time=Apr/10/2022 11:05:06
#Sta/Elev= 49 
       0  463.74       3  463.76       4  463.76      10  463.86    20.1  464.18
    23.1  464.25    26.2   464.3    29.2  464.37    32.1  464.41    34.7  464.42
    36.1  464.41    37.1  464.16    37.3  464.08      38  463.62    38.1  463.57
    39.1  462.85    40.1  461.99    41.2  461.49    42.2  461.38    43.2  461.32
    44.2  461.28    45.2  461.22    46.2  461.12    47.2  461.06    52.1  460.94
    53.2  460.94    54.5  460.96    56.2  461.02    57.2   461.3    57.6   461.5
    57.8  461.67    58.2  461.87    59.2  462.48    60.2  463.15    61.2  463.65
    62.1  463.92    63.1  464.21    65.2  464.44    67.3  464.45    76.3  464.37
    80.7  464.41    86.3  464.42    92.3  464.37    95.4  464.32   101.9  464.32
   107.4   464.3   111.4  464.31   119.3  464.39125.1346  464.41
#Mann= 1 ,-1,0
       0   -9999       0
Bank Sta=0,125.1346
XS Rating Curve= 0 ,0
XS HTab Starting El and Incr=461.09,0.17, 20 
XS HTab Horizontal Distribution= 5 , 5 , 5 
Exp/Cntr(USF)=0,0
Exp/Cntr=0.3,0.1

Type RM Length L Ch R = 1 ,3971    ,,,
XS GIS Cut Line=2
449764.9138997526211830.94543912449824.5565596066211741.48144934
Node Last Edited Time=Apr/10/2022 11:05:06
#Sta/Elev= 79 
       0  465.85     1.1  465.67     2.9  465.41     4.1  465.19    10.1  464.08
    10.8  463.95    12.3  463.77    13.7  463.71    15.5  463.92    17.3  464.25
    18.8  464.47    19.8   464.6    20.9  464.73    22.4  464.85    24.6  464.97
    25.3  464.98    26.3  464.94    26.7  464.92      27  464.87    28.2  464.63
    29.6  464.17      31  463.68    31.7  463.42    32.5  463.11    33.2  462.79
    33.9  462.44    35.4  461.67    37.1  460.91      39  460.13    39.7   459.8
    40.7  459.29    41.4  458.92    42.5  458.39    42.6  458.37      44   458.2
    44.3  458.18    52.7   458.1    55.5  458.17    58.4   458.2    61.8  458.26
    67.1  458.31      69   458.4    71.4  458.56    72.6  458.66    73.8   458.9
    74.3  459.05      75  459.36    76.3  460.06    77.2  460.76    77.5  460.95
    78.7  461.56    80.1  461.77    81.1  461.78    82.3  461.73    83.5  461.75
    85.8   461.9    85.9  461.89      86  461.88    86.6  461.83    87.1  461.79
    87.3  461.76    87.6  461.67      88  461.54    88.7  461.28    89.5  460.93
    90.9  460.34    91.6  460.07    91.9  459.93      93  459.46      93  459.45
    93.1  459.44    94.5   459.3    95.5  459.29    98.4  459.36    99.1  459.41
   101.5  459.63   102.7   459.7   105.6  459.74107.5223  459.72
#Mann= 1 ,-1,0
       0   -9999       0
Bank Sta=0,107.5223
XS Rating Curve= 0 ,0
XS HTab Starting El and Incr=458.25,0.3, 25 
XS HTab Horizontal Distribution= 5 , 5 , 5 
Exp/Cntr(USF)=0,0
Exp/Cntr=0.3,0.1

River Reach=Gave            ,Pau_amont       
Reach XY= 53 
     449846.5292     6211820.637     449846.5292     6211820.637
         449832.       6211870.8         449839.       6211985.6
        449859.3       6212035.4        449869.6       6212071.2
        449884.9       6212111.1         449926.       6212245.6
        449940.7       6212270.6        449951.3       6212285.3
        449961.4       6212300.2        449966.8       6212350.1
         449957.       6212370.2        449937.4       6212415.3
        449892.9       6212465.6        449769.1       6212602.5
        449744.5       6212647.6        449720.2       6212727.7
        449706.1       6212837.7        449707.5       6212887.7
        449698.1       6212958.7        449678.5       6212998.8
        449617.1       6213036.4        449553.4       6213094.7
        449548.4       6213094.8        449528.6       6213109.9
         449479.       6213160.3        449464.3       6213190.4
        449449.6       6213225.4        449440.2       6213242.3
         449417.       6213351.9         449428.       6213439.6
        449478.6       6213551.6        449457.8       6213623.4
        449437.4       6213658.6        449364.7       6213711.6
        449316.3       6213792.8        449279.8       6213888.6
        449282.7       6213959.5        449275.3       6214016.3
        449268.3       6214037.3        449252.6       6214087.9
        449207.1       6214150.7        449048.9       6214656.2
        449024.4       6214721.3        448960.6       6214856.7
        448946.2       6214921.7        448966.3       6215010.5
        448962.4       6215060.1        448937.5       6215137.5
        448925.3       6215203.2        448899.7       6215321.4
        448836.2       6215328.7
Rch Text X Y=449593.9469,6212697.65275
Reverse River Text= 0 

Type RM Length L Ch R = 1 ,3874    ,230.9,230.9,230.9
XS GIS Cut Line=2
 449711.549414626211885.87946793449979.9413839616211879.60129321
Node Last Edited Time=Apr/10/2022 11:05:06
#Sta/Elev= 259 
       0  460.05       4  460.17       7   460.3       8   460.3       9  460.23
      10   460.1      11  459.86      12  459.69      13  459.64    13.9  459.57
      15  459.51    15.9  459.44      17  459.34      18  459.28      20  459.22
      24  459.19      25  459.17      26  459.18      27  459.21      33  459.25
      34   459.3      35  459.36      36  459.57      37   459.9      38  460.38
      39  460.99      40  461.36      41  461.48      42  461.35    42.4   461.2
      43  460.93      44  460.66    44.3   460.6    44.6  460.51    45.3  460.39
    46.3  460.18    46.7  460.15      47  460.08      48  459.89    48.2  459.85
    48.7  459.84      49  459.81      50  459.72      51  459.69      56  459.59
      60  459.48    61.9  459.48      63  459.54      66  459.58      67  459.55
      69  459.54      78   459.5      81  459.46      86  459.46    91.7  459.41
      94  459.42      96  459.47      97  459.51      99  459.53    99.9  459.55
     100  459.55     101  459.62     103  459.62   103.9  459.55   104.9  459.43
   107.1  459.28   109.2  459.12   110.2  459.05     111  459.03     112  458.79
   114.3  457.68   114.7   457.5     115  457.35     116  457.16     118  457.37
     119   457.5     120  457.59   120.4  457.62     121  457.65     122  457.67
     123  457.66     127  457.54     128  457.53     129  457.55   130.7   457.5
     131  457.49     132  457.25   132.3  457.14   132.7  456.99     133  456.88
   133.3  456.77   133.7  456.56     134  456.45   134.8  456.06     135  455.95
     136  455.67   136.8  455.57     137  455.56   137.2  455.55   138.1  455.52
   140.9  455.54     144  455.55   146.9   455.5   148.9  455.44     151   455.4
   151.8  455.41     152  455.41   156.3  455.49   157.7  455.49     158  455.49
     159  455.45   159.6   455.5     160  455.52   160.4  455.59   160.6  455.64
     161  455.71   161.4  455.82   161.6  455.88     162     456   162.4  456.17
   162.6  456.23     163   456.4     164  456.92     165  457.58   165.5  457.81
     166  458.05     167  458.34     168  458.46   168.4  458.42   168.6  458.41
     169  458.37   169.4  458.38     170  458.39   170.4  458.44   170.6  458.47
   171.4  458.54     172  458.58   172.3  458.57   172.7  458.55     175  458.51
   175.7   458.5     176   458.5   176.8  458.51     177  458.51   177.2  458.51
   177.8  458.47     178  458.47   178.2  458.46     179  458.45   179.8  458.39
     180  458.38   180.2  458.37     181  458.31   181.1  458.31     183   458.3
     184  458.48   184.1   458.5   184.9  458.75   185.1  458.77     186  458.92
     187  458.94     187  458.95   187.3  458.94     188  458.93     189  458.89
     189  458.88   189.9  458.87   190.9  458.91     191  458.91   191.1  458.91
   191.9  458.93     192  458.93   192.1  458.93   192.9  458.94   193.8  458.94
     195  458.92   195.2  458.92     196  458.93   196.2  458.93   196.8  458.93
     197  458.94   198.7  459.15     199  459.21   199.3  459.26   199.7  459.33
     200  459.38   200.3  459.43   200.7  459.52     201  459.56     202  459.61
   202.4  459.59   202.6  459.59     203  459.57   203.4  459.54     204  459.49
   204.4  459.45   204.6  459.44     205   459.4   205.4  459.38   205.6  459.37
     206  459.35     207  459.37   207.5  459.33     208  459.29   209.5  459.06
     210  458.99     211  458.87   211.4  458.86   211.6  458.86     212  458.85
   212.4  458.88   213.4  458.96   214.4  459.03   214.6  459.06     215  459.08
     217  459.18   217.7  459.16     218  459.16   219.8  459.02   220.2  458.98
   220.8   458.9     221  458.88   221.2  458.87     222  458.83   226.1   458.9
   226.9  458.88     228  458.91   228.1  458.91     229  458.92     230  458.82
     231  458.59     231  458.58     232  458.45   232.9   458.5   233.9  458.62
     234  458.63   234.1  458.66   234.9  458.88     236  459.06     243  458.87
   243.3  458.86   243.7  458.84     244  458.83   244.4  458.81   244.7  458.79
     245  458.78   245.4  458.75   245.7  458.73     246   458.7     249   458.4
     251  458.21     252  458.16     254  458.12   254.4  458.12   254.6  458.12
   255.4  458.11     261  458.08   266.2  458.03268.4654  458.02
#Mann= 1 ,-1,0
       0   -9999       0
Bank Sta=0,268.4654
XS Rating Curve= 0 ,0
XS HTab Starting El and Incr=455.55,0.3, 20 
XS HTab Horizontal Distribution= 5 , 5 , 5 
Exp/Cntr(USF)=0,0
Exp/Cntr=0.3,0.1

Type RM Length L Ch R = 1 ,3643    ,126.1,126.1,126.1
XS GIS Cut Line=2
449775.9007055146212138.57600047450038.0145001356212058.52927277
Node Last Edited Time=Apr/10/2022 11:05:06
#Sta/Elev= 177 
       0  458.45     1.7  458.52     6.1  458.56      11  458.64      14  458.63
    15.3  458.67    16.3  458.79    17.4  458.97    19.4  459.53    20.5   459.7
    21.4  459.72    22.6   459.7    24.9  459.54    25.4  459.48      27  459.34
    27.8   459.2    30.9  458.92    31.8  458.91    34.1  458.76    37.2  458.64
    38.2  458.58    39.3   458.6    40.4  458.65    41.4  458.66    42.5  458.37
      43  458.16    43.5  457.95    44.5  457.28    44.6  457.26    45.6  456.78
    45.9  456.64    46.2  456.52    46.6   456.4    47.7  456.24      51  456.24
    52.9  456.22    54.2  456.26      55  456.24    55.8  456.34    57.1  456.44
    57.4   456.5      58  456.55    58.1  456.57      59  456.84    59.2  456.86
    60.2  457.14    61.9  457.78    62.2  457.93    62.3  457.98    63.4  458.59
    64.4  458.81    65.4  458.79    66.5  458.73    67.5   458.7    69.6   458.7
      70  458.62    70.2   458.6    70.7  458.49    71.7  458.05    72.8   457.4
    73.4  456.92    73.8  456.67    74.2  456.51    74.9  456.27    75.6  456.23
      77  456.18    86.4  456.18    87.4  456.46    87.8  456.67    88.1  456.84
    89.5  457.65    90.3  457.99    90.5  458.13    91.1  458.25    91.6  458.34
    92.6  458.31    92.6   458.3    94.7   458.1    95.6  458.04    96.8     458
    97.5  457.94    98.9  457.74    99.1  457.64     100  456.88   100.7  455.99
     101  455.53     102   454.5   102.3  454.37   103.1  454.22   103.1  454.21
   103.1   454.2   103.9  454.04   104.1  454.01   107.9     454   110.4  453.97
   111.5  453.98   114.6  453.96   116.7  453.98   119.8  453.96   121.5  453.97
     124  453.98   127.2   453.9   129.5  453.87   132.4  453.89   133.4  453.93
   134.3  453.99   135.5  454.23   135.9  454.38   136.6   454.7   136.7  454.78
   137.2  455.05   137.5  455.19   137.6  455.24   138.6  455.84   139.7  456.23
   140.7  456.37   143.9  456.66   144.1  456.66   144.7   456.7   144.9  456.71
   145.3  456.73   145.5  456.74     146  456.75     147  456.77   150.3  456.74
   153.5  456.76   154.3  456.78   155.1  456.81   155.4  456.81   156.4  456.82
   157.3  456.79   157.5  456.78   159.9  456.73   161.5  456.77   161.6  456.78
   161.9  456.79   162.7  456.82   163.1  456.82   163.4  456.83   163.7  456.84
   164.6  456.84   164.7  456.84   167.9  456.69   172.1  456.65   176.8  456.56