Geom Title=amont_lourdes
Program Version=6.00
Viewing Rectangle= 441413.47 , 453911.53 , 6220399.64 , 6201158.36 

Junct Name=amont           
Junct Desc=, 0 , 0 ,-1 ,0
Junct X Y & Text X Y=449846.5292,6211820.637,449842.7920457,6211820.1253297
Up River,Reach=Gave            ,Gavarnie        
Up River,Reach=Gave            ,Cauterets       
Dn River,Reach=Gave            ,Pau_amont       
Junc L&A=0,0
Junc L&A=0,0

River Reach=Gave            ,Gavarnie        
Reach XY= 12 
        449687.3       6211401.5        449788.5       6211435.6
     449818.6908      6211465.31     449818.6908      6211465.31
        449818.8       6211475.3        449833.9       6211495.2
        449869.7       6211590.8        449875.1       6211650.6
        449870.5       6211690.6         449856.       6211750.7
        449851.3       6211790.7     449846.5292     6211820.637
Rch Text X Y=449726.1730114,6211506.1563324
Reverse River Text= 0 

River Reach=Gave            ,Cauterets       
Reach XY= 11 
        449157.2       6211441.8        449238.4       6211471.1
        449273.6       6211500.8        449314.1       6211565.4
        449354.4        6211610.        449394.5       6211629.6
        449459.5       6211639.1        449585.8        6211693.
        449680.9       6211712.2         449736.       6211731.7
     449846.5292     6211820.637
Rch Text X Y=449352.0010182,6211552.2753245
Reverse River Text= 0 

River Reach=Gave            ,Pau_amont       
Reach XY= 53 
     449846.5292     6211820.637     449846.5292     6211820.637
         449832.       6211870.8         449839.       6211985.6
        449859.3       6212035.4        449869.6       6212071.2
        449884.9       6212111.1         449926.       6212245.6
        449940.7       6212270.6        449951.3       6212285.3
        449961.4       6212300.2        449966.8       6212350.1
         449957.       6212370.2        449937.4       6212415.3
        449892.9       6212465.6        449769.1       6212602.5
        449744.5       6212647.6        449720.2       6212727.7
        449706.1       6212837.7        449707.5       6212887.7
        449698.1       6212958.7        449678.5       6212998.8
        449617.1       6213036.4        449553.4       6213094.7
        449548.4       6213094.8        449528.6       6213109.9
         449479.       6213160.3        449464.3       6213190.4
        449449.6       6213225.4        449440.2       6213242.3
         449417.       6213351.9         449428.       6213439.6
        449478.6       6213551.6        449457.8       6213623.4
        449437.4       6213658.6        449364.7       6213711.6
        449316.3       6213792.8        449279.8       6213888.6
        449282.7       6213959.5        449275.3       6214016.3
        449268.3       6214037.3        449252.6       6214087.9
        449207.1       6214150.7        449048.9       6214656.2
        449024.4       6214721.3        448960.6       6214856.7
        448946.2       6214921.7        448966.3       6215010.5
        448962.4       6215060.1        448937.5       6215137.5
        448925.3       6215203.2        448899.7       6215321.4
        448836.2       6215328.7
Rch Text X Y=449591.1440343,6212697.2689973
Reverse River Text= 0 

LCMann Time=Dec/30/1899 00:00:00
LCMann Region Time=Dec/30/1899 00:00:00
LCMann Table=0
Chan Stop Cuts=-1 



Use User Specified Reach Order=0
GIS Ratio Cuts To Invert=-1
GIS Limit At Bridges=0
Composite Channel Slope=5
