Geom Title=geometry2D
Program Version=6.00
Viewing Rectangle= 448705.884695039 , 450268.980991941 , 6215419.11291848 , 6211236.12677516 

Storage Area=contour2D       ,,
Storage Area Surface Line= 42 
448812.6965398216215109.78224055                
448870.8165724186215186.74296245                
448988.1338564076215228.97718469                
449145.339016953  6215085.067983                
449253.143942141 6214852.2184977                
449305.6321209266214472.68858957                
449406.5709262816214058.83948761                
449584.2232237056213485.50707319                
449671.0305963116213297.76089523                
449953.6592513056212837.47994282                
450129.292772622 6212405.4618559                
450197.9311602646212165.22749915                
450032.3915194826211924.99314241                
449870.8894309146211448.56198113                
449786.1008344156211503.06893602                
449812.3449238086211686.77756177                
449457.0403289586211591.89508473                
449186.6568419456211426.26250895                
449161.3163086036211498.76459045                
449374.2925974636211711.06647662                
449631.2492842146211795.83569287                
449766.3502226096211867.35971908                
449786.2180076676212152.13130491                
449889.5304899696212333.59040844                
449742.5088805396212513.72499297                
449595.4872711096212685.91246347                
449529.2613209156212840.88118692                
449501.4464218346212977.30664432                
 449418.001724596213120.35469674                
 449383.564230496213207.77295099                
449225.9464690296213300.48928127                
449192.8334939326213467.37867575                
449292.172419222 6213585.2608671                
449265.6820391456213709.76565346                
449179.5883038936213803.80650274                
449134.5546577626214042.21992343                
449003.427276379 6214166.7247098                
448938.5258451896214336.26314229                
448904.0883510886214666.06837426                
448776.9345267166214858.12362982                
448820.6436538446214969.38322614                
448812.6965398216215109.78224055                
Storage Area Type= 1 
Storage Area Area=
Storage Area Min Elev=
Storage Area Is2D=-1
Storage Area Point Generation Data=,,100,100
Storage Area 2D Points= 0 
Storage Area 2D PointsPerimeterTime=14Apr2022 21:43:34
Storage Area Mannings=0.06
2D Cell Volume Filter Tolerance=0.003
2D Cell Minimum Area Fraction=0.01
2D Face Profile Filter Tolerance=0.003
2D Face Area Elevation Profile Filter Tolerance=0.003
2D Face Area Elevation Conveyance Ratio=0.02
2D Face Area Laminar Depth=0.06

LCMann Time=Dec/30/1899 00:00:00
LCMann Region Time=Dec/30/1899 00:00:00
LCMann Table=0
Chan Stop Cuts=-1 



Use User Specified Reach Order=0
GIS Ratio Cuts To Invert=-1
GIS Limit At Bridges=0
Composite Channel Slope=5
