Geom Title=geometry2D
Program Version=6.00
Viewing Rectangle= 448705.884695039 , 450268.980991941 , 6215419.11291848 , 6211236.12677516 

Storage Area=contour2D       ,,
Storage Area Surface Line= 42 
448812.6965398216215109.78224055                
448870.8165724186215186.74296245                
448988.1338564076215228.97718469                
449145.339016953  6215085.067983                
449253.143942141 6214852.2184977                
449305.6321209266214472.68858957                
449406.5709262816214058.83948761                
449584.2232237056213485.50707319                
449671.0305963116213297.76089523                
449953.6592513056212837.47994282                
450129.292772622 6212405.4618559                
450197.9311602646212165.22749915                
450032.3915194826211924.99314241                
449870.8894309146211448.56198113                
449786.1008344156211503.06893602                
449812.3449238086211686.77756177                
449457.0403289586211591.89508473                
449186.6568419456211426.26250895                
449161.3163086036211498.76459045                
449374.2925974636211711.06647662                
449631.2492842146211795.83569287                
449766.3502226096211867.35971908                
449786.2180076676212152.13130491                
449889.5304899696212333.59040844                
449742.5088805396212513.72499297                
449595.4872711096212685.91246347                
449529.2613209156212840.88118692                
449501.4464218346212977.30664432                
 449418.001724596213120.35469674                
 449383.564230496213207.77295099                
449225.9464690296213300.48928127                
449192.8334939326213467.37867575                
449292.172419222 6213585.2608671                
449265.6820391456213709.76565346                
449179.5883038936213803.80650274                
449134.5546577626214042.21992343                
449003.427276379 6214166.7247098                
448938.5258451896214336.26314229                
448904.0883510886214666.06837426                
448776.9345267166214858.12362982                
448820.6436538446214969.38322614                
448812.6965398216215109.78224055                
Storage Area Type= 1 
Storage Area Area=
Storage Area Min Elev=
Storage Area Is2D=-1
Storage Area Point Generation Data=,,10,10
Storage Area 2D Points= 15110 
448981.9345267166215223.97718469448961.9345267166215213.97718469
448971.9345267166215213.97718469448981.9345267166215213.97718469
448991.9345267166215213.97718469448931.9345267166215203.97718469
448941.9345267166215203.97718469448951.9345267166215203.97718469
448961.9345267166215203.97718469448971.9345267166215203.97718469
448981.9345267166215203.97718469448991.9345267166215203.97718469
448901.9345267166215193.97718469448911.9345267166215193.97718469
448921.9345267166215193.97718469448931.9345267166215193.97718469
448941.9345267166215193.97718469448951.9345267166215193.97718469
448961.9345267166215193.97718469448971.9345267166215193.97718469
448981.9345267166215193.97718469448991.9345267166215193.97718469
449001.9345267166215193.97718469448871.9345267166215183.97718469
448881.9345267166215183.97718469448891.9345267166215183.97718469
448901.9345267166215183.97718469448911.9345267166215183.97718469
448921.9345267166215183.97718469448931.9345267166215183.97718469
448941.9345267166215183.97718469448951.9345267166215183.97718469
448961.9345267166215183.97718469448971.9345267166215183.97718469
448981.9345267166215183.97718469448991.9345267166215183.97718469
449001.9345267166215183.97718469448871.9345267166215173.97718469
448881.9345267166215173.97718469448891.9345267166215173.97718469
448901.9345267166215173.97718469448911.9345267166215173.97718469
448921.9345267166215173.97718469448931.9345267166215173.97718469
448941.9345267166215173.97718469448951.9345267166215173.97718469
448961.9345267166215173.97718469448971.9345267166215173.97718469
448981.9345267166215173.97718469448991.9345267166215173.97718469
449001.9345267166215173.97718469449011.9345267166215173.97718469
449041.9345267166215173.97718469448861.9345267166215163.97718469
448871.9345267166215163.97718469448881.9345267166215163.97718469
448891.9345267166215163.97718469448901.9345267166215163.97718469
448911.9345267166215163.97718469448921.9345267166215163.97718469
448931.9345267166215163.97718469448941.9345267166215163.97718469
448951.9345267166215163.97718469448961.9345267166215163.97718469
448971.9345267166215163.97718469448981.9345267166215163.97718469
448991.9345267166215163.97718469449001.9345267166215163.97718469
449011.9345267166215163.97718469449051.9345267166215163.97718469
448851.9345267166215153.97718469448861.9345267166215153.97718469
448871.9345267166215153.97718469448881.9345267166215153.97718469
448891.9345267166215153.97718469448901.9345267166215153.97718469
448911.9345267166215153.97718469448921.9345267166215153.97718469
448931.9345267166215153.97718469448941.9345267166215153.97718469
448951.9345267166215153.97718469448961.9345267166215153.97718469
448971.9345267166215153.97718469448981.9345267166215153.97718469
448991.9345267166215153.97718469449001.9345267166215153.97718469
449011.9345267166215153.97718469449021.9345267166215153.97718469
449051.9345267166215153.97718469449061.9345267166215153.97718469
448841.9345267166215143.97718469448851.9345267166215143.97718469
448861.9345267166215143.97718469448871.9345267166215143.97718469
448881.9345267166215143.97718469448891.9345267166215143.97718469
448901.9345267166215143.97718469448911.9345267166215143.97718469
448921.9345267166215143.97718469448931.9345267166215143.97718469
448941.9345267166215143.97718469448951.9345267166215143.97718469
448961.9345267166215143.97718469448971.9345267166215143.97718469
448981.9345267166215143.97718469448991.9345267166215143.97718469
449001.9345267166215143.97718469449011.9345267166215143.97718469
449021.9345267166215143.97718469449061.9345267166215143.97718469
449071.9345267166215143.97718469448841.9345267166215133.97718469
448851.9345267166215133.97718469448861.9345267166215133.97718469
448871.9345267166215133.97718469448881.9345267166215133.97718469
448891.9345267166215133.97718469448901.9345267166215133.97718469
448911.9345267166215133.97718469448921.9345267166215133.97718469
448931.9345267166215133.97718469448941.9345267166215133.97718469
448951.9345267166215133.97718469448961.9345267166215133.97718469
448971.9345267166215133.97718469448981.9345267166215133.97718469
448991.9345267166215133.97718469449001.9345267166215133.97718469
449011.9345267166215133.97718469449021.9345267166215133.97718469
449031.9345267166215133.97718469449061.9345267166215133.97718469
449071.9345267166215133.97718469449081.9345267166215133.97718469
448831.9345267166215123.97718469448841.9345267166215123.97718469
448851.9345267166215123.97718469448861.9345267166215123.97718469
448871.9345267166215123.97718469448881.9345267166215123.97718469
448891.9345267166215123.97718469448901.9345267166215123.97718469
448911.9345267166215123.97718469448921.9345267166215123.97718469
448931.9345267166215123.97718469448941.9345267166215123.97718469
448951.9345267166215123.97718469448961.9345267166215123.97718469
448971.9345267166215123.97718469448981.9345267166215123.97718469
448991.9345267166215123.97718469449001.9345267166215123.97718469
449011.9345267166215123.97718469449021.9345267166215123.97718469
449031.9345267166215123.97718469449071.9345267166215123.97718469
449081.9345267166215123.97718469449091.9345267166215123.97718469
448821.9345267166215113.97718469448831.9345267166215113.97718469
448841.9345267166215113.97718469448851.9345267166215113.97718469
448861.9345267166215113.97718469448871.9345267166215113.97718469
448881.9345267166215113.97718469448891.9345267166215113.97718469
448901.9345267166215113.97718469448911.9345267166215113.97718469
448921.9345267166215113.97718469448931.9345267166215113.97718469
448941.9345267166215113.97718469448951.9345267166215113.97718469
448961.9345267166215113.97718469448971.9345267166215113.97718469
448981.9345267166215113.97718469448991.9345267166215113.97718469
449001.9345267166215113.97718469449011.9345267166215113.97718469
449021.9345267166215113.97718469449031.9345267166215113.97718469
449041.9345267166215113.97718469449081.9345267166215113.97718469
449091.9345267166215113.97718469449101.9345267166215113.97718469
448821.9345267166215103.97718469448831.9345267166215103.97718469
448841.9345267166215103.97718469448851.9345267166215103.97718469
448861.9345267166215103.97718469448871.9345267166215103.97718469
448881.9345267166215103.97718469448891.9345267166215103.97718469
448901.9345267166215103.97718469448911.9345267166215103.97718469
448921.9345267166215103.97718469448931.9345267166215103.97718469
448941.9345267166215103.97718469448951.9345267166215103.97718469
448961.9345267166215103.97718469448971.9345267166215103.97718469
448981.9345267166215103.97718469448991.9345267166215103.97718469
449001.9345267166215103.97718469449011.9345267166215103.97718469
449021.9345267166215103.97718469449031.9345267166215103.97718469
449081.9345267166215103.97718469449091.9345267166215103.97718469
449101.9345267166215103.97718469449111.9345267166215103.97718469
448821.9345267166215093.97718469448831.9345267166215093.97718469
448841.9345267166215093.97718469448851.9345267166215093.97718469
448861.9345267166215093.97718469448871.9345267166215093.97718469
448881.9345267166215093.97718469448891.9345267166215093.97718469
448901.9345267166215093.97718469448911.9345267166215093.97718469
448921.9345267166215093.97718469448931.9345267166215093.97718469
448941.9345267166215093.97718469448951.9345267166215093.97718469
448961.9345267166215093.97718469448971.9345267166215093.97718469
448981.9345267166215093.97718469448991.9345267166215093.97718469
449001.9345267166215093.97718469449011.9345267166215093.97718469
449091.9345267166215093.97718469449101.9345267166215093.97718469
449111.9345267166215093.97718469449121.9345267166215093.97718469
448821.9345267166215083.97718469448831.9345267166215083.97718469
448841.9345267166215083.97718469448851.9345267166215083.97718469
448861.9345267166215083.97718469448871.9345267166215083.97718469
448881.9345267166215083.97718469448891.9345267166215083.97718469
448901.9345267166215083.97718469448911.9345267166215083.97718469
448921.9345267166215083.97718469448931.9345267166215083.97718469
448941.9345267166215083.97718469448951.9345267166215083.97718469
448961.9345267166215083.97718469448971.9345267166215083.97718469
448981.9345267166215083.97718469449091.9345267166215083.97718469
449101.9345267166215083.97718469449111.9345267166215083.97718469
449121.9345267166215083.97718469449131.9345267166215083.97718469
449141.9345267166215083.97718469448821.9345267166215073.97718469
448831.9345267166215073.97718469448841.9345267166215073.97718469
448851.9345267166215073.97718469448861.9345267166215073.97718469
448871.9345267166215073.97718469448881.9345267166215073.97718469
448891.9345267166215073.97718469448901.9345267166215073.97718469
448911.9345267166215073.97718469448921.9345267166215073.97718469
448931.9345267166215073.97718469448941.9345267166215073.97718469
448951.9345267166215073.97718469448961.9345267166215073.97718469
449101.9345267166215073.97718469449111.9345267166215073.97718469
449121.9345267166215073.97718469449131.9345267166215073.97718469
449141.9345267166215073.97718469448821.9345267166215063.97718469
448831.9345267166215063.97718469448841.9345267166215063.97718469
448851.9345267166215063.97718469448861.9345267166215063.97718469
448871.9345267166215063.97718469448881.9345267166215063.97718469
448891.9345267166215063.97718469448901.9345267166215063.97718469
448911.9345267166215063.97718469448921.9345267166215063.97718469
448931.9345267166215063.97718469449101.9345267166215063.97718469
449111.9345267166215063.97718469449121.9345267166215063.97718469
449131.9345267166215063.97718469449141.9345267166215063.97718469
449151.9345267166215063.97718469448821.9345267166215053.97718469
448831.9345267166215053.97718469448841.9345267166215053.97718469
448851.9345267166215053.97718469448861.9345267166215053.97718469
448871.9345267166215053.97718469448881.9345267166215053.97718469
448891.9345267166215053.97718469448901.9345267166215053.97718469
448911.9345267166215053.97718469449111.9345267166215053.97718469
449121.9345267166215053.97718469449131.9345267166215053.97718469
449141.9345267166215053.97718469449151.9345267166215053.97718469
448821.9345267166215043.97718469448831.9345267166215043.97718469
448841.9345267166215043.97718469448851.9345267166215043.97718469
448861.9345267166215043.97718469448871.9345267166215043.97718469
448881.9345267166215043.97718469449111.9345267166215043.97718469
449121.9345267166215043.97718469449131.9345267166215043.97718469
449141.9345267166215043.97718469449151.9345267166215043.97718469
448821.9345267166215033.97718469448831.9345267166215033.97718469
448841.9345267166215033.97718469448851.9345267166215033.97718469
448861.9345267166215033.97718469449121.9345267166215033.97718469
449131.9345267166215033.97718469449141.9345267166215033.97718469
449151.9345267166215033.97718469449161.9345267166215033.97718469
448821.9345267166215023.97718469448831.9345267166215023.97718469
448841.9345267166215023.97718469449131.9345267166215023.97718469
449141.9345267166215023.97718469449151.9345267166215023.97718469
449161.9345267166215023.97718469449131.9345267166215013.97718469
449141.9345267166215013.97718469449151.9345267166215013.97718469
449161.9345267166215013.97718469449171.9345267166215013.97718469
449141.9345267166215003.97718469449151.9345267166215003.97718469
449161.9345267166215003.97718469449171.9345267166215003.97718469
449151.9345267166214993.97718469449161.9345267166214993.97718469
449171.9345267166214993.97718469449181.9345267166214993.97718469
449151.9345267166214983.97718469449161.9345267166214983.97718469
449171.9345267166214983.97718469449181.9345267166214983.97718469
449161.9345267166214973.97718469449171.9345267166214973.97718469
449181.9345267166214973.97718469449191.9345267166214973.97718469
449171.9345267166214963.97718469449181.9345267166214963.97718469
449191.9345267166214963.97718469449171.9345267166214953.97718469
449181.9345267166214953.97718469449191.9345267166214953.97718469
449201.9345267166214953.97718469449181.9345267166214943.97718469
449191.9345267166214943.97718469449201.9345267166214943.97718469
449191.9345267166214933.97718469449201.9345267166214933.97718469
449211.9345267166214933.97718469449191.9345267166214923.97718469
449201.9345267166214923.97718469449211.9345267166214923.97718469
449201.9345267166214913.97718469449211.9345267166214913.97718469
449201.9345267166214903.97718469449211.9345267166214903.97718469
449221.9345267166214903.97718469449161.9345267166214893.97718469
449171.9345267166214893.97718469449211.9345267166214893.97718469
449221.9345267166214893.97718469449141.9345267166214883.97718469
449151.9345267166214883.97718469449161.9345267166214883.97718469
449171.9345267166214883.97718469449211.9345267166214883.97718469
449221.9345267166214883.97718469449231.9345267166214883.97718469
449121.9345267166214873.97718469449131.9345267166214873.97718469
449141.9345267166214873.97718469449151.9345267166214873.97718469
449161.9345267166214873.97718469449171.9345267166214873.97718469
449181.9345267166214873.97718469449221.9345267166214873.97718469
449231.9345267166214873.97718469449101.9345267166214863.97718469
449111.9345267166214863.97718469449121.9345267166214863.97718469
449131.9345267166214863.97718469449141.9345267166214863.97718469
449151.9345267166214863.97718469449161.9345267166214863.97718469
449171.9345267166214863.97718469449181.9345267166214863.97718469
449221.9345267166214863.97718469449231.9345267166214863.97718469
449241.9345267166214863.97718469449081.9345267166214853.97718469
449091.9345267166214853.97718469449101.9345267166214853.97718469
449111.9345267166214853.97718469449121.9345267166214853.97718469
449131.9345267166214853.97718469449141.9345267166214853.97718469
449151.9345267166214853.97718469449161.9345267166214853.97718469
449171.9345267166214853.97718469449181.9345267166214853.97718469
449191.9345267166214853.97718469449231.9345267166214853.97718469
449241.9345267166214853.97718469449061.9345267166214843.97718469
449071.9345267166214843.97718469449081.9345267166214843.97718469
449091.9345267166214843.97718469449101.9345267166214843.97718469
449111.9345267166214843.97718469449121.9345267166214843.97718469
449131.9345267166214843.97718469449141.9345267166214843.97718469
449151.9345267166214843.97718469449161.9345267166214843.97718469
449171.9345267166214843.97718469449181.9345267166214843.97718469
449191.9345267166214843.97718469449231.9345267166214843.97718469
449241.9345267166214843.97718469449041.9345267166214833.97718469
449051.9345267166214833.97718469449061.9345267166214833.97718469
449071.9345267166214833.97718469449081.9345267166214833.97718469
449091.9345267166214833.97718469449101.9345267166214833.97718469
449111.9345267166214833.97718469449121.9345267166214833.97718469
449131.9345267166214833.97718469449141.9345267166214833.97718469
449151.9345267166214833.97718469449161.9345267166214833.97718469
449171.9345267166214833.97718469449181.9345267166214833.97718469
449191.9345267166214833.97718469449201.9345267166214833.97718469
449231.9345267166214833.97718469449241.9345267166214833.97718469
449251.9345267166214833.97718469449021.9345267166214823.97718469
449031.9345267166214823.97718469449041.9345267166214823.97718469
449051.9345267166214823.97718469449061.9345267166214823.97718469
449071.9345267166214823.97718469449081.9345267166214823.97718469
449091.9345267166214823.97718469449101.9345267166214823.97718469
449111.9345267166214823.97718469449121.9345267166214823.97718469
449131.9345267166214823.97718469449141.9345267166214823.97718469
449151.9345267166214823.97718469449161.9345267166214823.97718469
449171.9345267166214823.97718469449181.9345267166214823.97718469
449191.9345267166214823.97718469449201.9345267166214823.97718469
449241.9345267166214823.97718469449251.9345267166214823.97718469
449001.9345267166214813.97718469449011.9345267166214813.97718469
449021.9345267166214813.97718469449031.9345267166214813.97718469
449041.9345267166214813.97718469449051.9345267166214813.97718469
449061.9345267166214813.97718469449071.9345267166214813.97718469
449081.9345267166214813.97718469449091.9345267166214813.97718469
449101.9345267166214813.97718469449111.9345267166214813.97718469
449121.9345267166214813.97718469449131.9345267166214813.97718469
449141.9345267166214813.97718469449151.9345267166214813.97718469
449161.9345267166214813.97718469449171.9345267166214813.97718469
449181.9345267166214813.97718469449191.9345267166214813.97718469
449201.9345267166214813.97718469449241.9345267166214813.97718469
449251.9345267166214813.97718469448981.9345267166214803.97718469
448991.9345267166214803.97718469449001.9345267166214803.97718469
449011.9345267166214803.97718469449021.9345267166214803.97718469
449031.9345267166214803.97718469449041.9345267166214803.97718469
449051.9345267166214803.97718469449061.9345267166214803.97718469
449071.9345267166214803.97718469449081.9345267166214803.97718469
449091.9345267166214803.97718469449101.9345267166214803.97718469
449111.9345267166214803.97718469449121.9345267166214803.97718469
449131.9345267166214803.97718469449141.9345267166214803.97718469
449151.9345267166214803.97718469449161.9345267166214803.97718469
449171.9345267166214803.97718469449181.9345267166214803.97718469
449191.9345267166214803.97718469449201.9345267166214803.97718469
449241.9345267166214803.97718469449251.9345267166214803.97718469
448961.9345267166214793.97718469448971.9345267166214793.97718469
448981.9345267166214793.97718469448991.9345267166214793.97718469
449001.9345267166214793.97718469449011.9345267166214793.97718469
449021.9345267166214793.97718469449031.9345267166214793.97718469
449041.9345267166214793.97718469449051.9345267166214793.97718469
449061.9345267166214793.97718469449071.9345267166214793.97718469
449081.9345267166214793.97718469449091.9345267166214793.97718469
449101.9345267166214793.97718469449111.9345267166214793.97718469
449121.9345267166214793.97718469449131.9345267166214793.97718469
449141.9345267166214793.97718469449151.9345267166214793.97718469
449161.9345267166214793.97718469449171.9345267166214793.97718469
449181.9345267166214793.97718469449191.9345267166214793.97718469
449201.9345267166214793.97718469449211.9345267166214793.97718469
449241.9345267166214793.97718469449251.9345267166214793.97718469
448941.9345267166214783.97718469448951.9345267166214783.97718469
448961.9345267166214783.97718469448971.9345267166214783.97718469
448981.9345267166214783.97718469448991.9345267166214783.97718469
449001.9345267166214783.97718469449011.9345267166214783.97718469
449021.9345267166214783.97718469449031.9345267166214783.97718469
449041.9345267166214783.97718469449051.9345267166214783.97718469
449061.9345267166214783.97718469449071.9345267166214783.97718469
449081.9345267166214783.97718469449091.9345267166214783.97718469
449101.9345267166214783.97718469449111.9345267166214783.97718469
449121.9345267166214783.97718469449131.9345267166214783.97718469
449141.9345267166214783.97718469449151.9345267166214783.97718469
449161.9345267166214783.97718469449171.9345267166214783.97718469
449181.9345267166214783.97718469449191.9345267166214783.97718469
449201.9345267166214783.97718469449211.9345267166214783.97718469
449241.9345267166214783.97718469449251.9345267166214783.97718469
448921.9345267166214773.97718469448931.9345267166214773.97718469
448941.9345267166214773.97718469448951.9345267166214773.97718469
448961.9345267166214773.97718469448971.9345267166214773.97718469
448981.9345267166214773.97718469448991.9345267166214773.97718469
449001.9345267166214773.97718469449011.9345267166214773.97718469
449021.9345267166214773.97718469449031.9345267166214773.97718469
449041.9345267166214773.97718469449051.9345267166214773.97718469
449061.9345267166214773.97718469449071.9345267166214773.97718469
449081.9345267166214773.97718469449091.9345267166214773.97718469
449101.9345267166214773.97718469449111.9345267166214773.97718469
449121.9345267166214773.97718469449131.9345267166214773.97718469
449141.9345267166214773.97718469449151.9345267166214773.97718469
449161.9345267166214773.97718469449171.9345267166214773.97718469
449181.9345267166214773.97718469449191.9345267166214773.97718469
449201.9345267166214773.97718469449211.9345267166214773.97718469
449241.9345267166214773.97718469449251.9345267166214773.97718469
448901.9345267166214763.97718469448911.9345267166214763.97718469
448921.9345267166214763.97718469448931.9345267166214763.97718469
448941.9345267166214763.97718469448951.9345267166214763.97718469
448961.9345267166214763.97718469448971.9345267166214763.97718469
448981.9345267166214763.97718469448991.9345267166214763.97718469
449001.9345267166214763.97718469449011.9345267166214763.97718469
449021.9345267166214763.97718469449031.9345267166214763.97718469
449041.9345267166214763.97718469449051.9345267166214763.97718469
449061.9345267166214763.97718469449071.9345267166214763.97718469
449081.9345267166214763.97718469449091.9345267166214763.97718469
449101.9345267166214763.97718469449111.9345267166214763.97718469
449121.9345267166214763.97718469449131.9345267166214763.97718469
449141.9345267166214763.97718469449151.9345267166214763.97718469
449161.9345267166214763.97718469449171.9345267166214763.97718469
449181.9345267166214763.97718469449191.9345267166214763.97718469
449201.9345267166214763.97718469449211.9345267166214763.97718469
449251.9345267166214763.97718469449261.9345267166214763.97718469
448881.9345267166214753.97718469448891.9345267166214753.97718469
448901.9345267166214753.97718469448911.9345267166214753.97718469
448921.9345267166214753.97718469448931.9345267166214753.97718469
448941.9345267166214753.97718469448951.9345267166214753.97718469
448961.9345267166214753.97718469448971.9345267166214753.97718469
448981.9345267166214753.97718469448991.9345267166214753.97718469
449001.9345267166214753.97718469449011.9345267166214753.97718469
449021.9345267166214753.97718469449031.9345267166214753.97718469
449041.9345267166214753.97718469449051.9345267166214753.97718469
449061.9345267166214753.97718469449071.9345267166214753.97718469
449081.9345267166214753.97718469449091.9345267166214753.97718469
449101.9345267166214753.97718469449111.9345267166214753.97718469
449121.9345267166214753.97718469449131.9345267166214753.97718469
449141.9345267166214753.97718469449151.9345267166214753.97718469
449161.9345267166214753.97718469449171.9345267166214753.97718469
449181.9345267166214753.97718469449191.9345267166214753.97718469
449201.9345267166214753.97718469449211.9345267166214753.97718469
449251.9345267166214753.97718469449261.9345267166214753.97718469
448861.9345267166214743.97718469448871.9345267166214743.97718469
448881.9345267166214743.97718469448891.9345267166214743.97718469
448901.9345267166214743.97718469448911.9345267166214743.97718469
448921.9345267166214743.97718469448931.9345267166214743.97718469
448941.9345267166214743.97718469448951.9345267166214743.97718469
448961.9345267166214743.97718469448971.9345267166214743.97718469
448981.9345267166214743.97718469448991.9345267166214743.97718469
449001.9345267166214743.97718469449011.9345267166214743.97718469
449021.9345267166214743.97718469449031.9345267166214743.97718469
449041.9345267166214743.97718469449051.9345267166214743.97718469
449061.9345267166214743.97718469449071.9345267166214743.97718469
449081.9345267166214743.97718469449091.9345267166214743.97718469
449101.9345267166214743.97718469449111.9345267166214743.97718469
449121.9345267166214743.97718469449131.9345267166214743.97718469
449141.9345267166214743.97718469449151.9345267166214743.97718469
449161.9345267166214743.97718469449171.9345267166214743.97718469
449181.9345267166214743.97718469449191.9345267166214743.97718469
449201.9345267166214743.97718469449211.9345267166214743.97718469
449251.9345267166214743.97718469449261.9345267166214743.97718469
448871.9345267166214733.97718469448881.9345267166214733.97718469
448891.9345267166214733.97718469448901.9345267166214733.97718469
448911.9345267166214733.97718469448921.9345267166214733.97718469
448931.9345267166214733.97718469448941.9345267166214733.97718469
448951.9345267166214733.97718469448961.9345267166214733.97718469
448971.9345267166214733.97718469448981.9345267166214733.97718469
448991.9345267166214733.97718469449001.9345267166214733.97718469
449011.9345267166214733.97718469449021.9345267166214733.97718469
449031.9345267166214733.97718469449041.9345267166214733.97718469
449051.9345267166214733.97718469449061.9345267166214733.97718469
449071.9345267166214733.97718469449081.9345267166214733.97718469
449091.9345267166214733.97718469449101.9345267166214733.97718469
449111.9345267166214733.97718469449121.9345267166214733.97718469
449131.9345267166214733.97718469449141.9345267166214733.97718469
449151.9345267166214733.97718469449161.9345267166214733.97718469
449171.9345267166214733.97718469449181.9345267166214733.97718469
449191.9345267166214733.97718469449201.9345267166214733.97718469
449211.9345267166214733.97718469449221.9345267166214733.97718469
449251.9345267166214733.97718469449261.9345267166214733.97718469
448871.9345267166214723.97718469448881.9345267166214723.97718469
448891.9345267166214723.97718469448901.9345267166214723.97718469
448911.9345267166214723.97718469448921.9345267166214723.97718469
448931.9345267166214723.97718469448941.9345267166214723.97718469
448951.9345267166214723.97718469448961.9345267166214723.97718469
448971.9345267166214723.97718469448981.9345267166214723.97718469
448991.9345267166214723.97718469449001.9345267166214723.97718469
449011.9345267166214723.97718469449021.9345267166214723.97718469
449031.9345267166214723.97718469449041.9345267166214723.97718469
449051.9345267166214723.97718469449061.9345267166214723.97718469
449071.9345267166214723.97718469449081.9345267166214723.97718469
449091.9345267166214723.97718469449101.9345267166214723.97718469
449111.9345267166214723.97718469449121.9345267166214723.97718469
449131.9345267166214723.97718469449141.9345267166214723.97718469
449151.9345267166214723.97718469449161.9345267166214723.97718469
449171.9345267166214723.97718469449181.9345267166214723.97718469
449191.9345267166214723.97718469449201.9345267166214723.97718469
449211.9345267166214723.97718469449221.9345267166214723.97718469
449251.9345267166214723.97718469449261.9345267166214723.97718469
448881.9345267166214713.97718469448891.9345267166214713.97718469
448901.9345267166214713.97718469448911.9345267166214713.97718469
448921.9345267166214713.97718469448931.9345267166214713.97718469
448941.9345267166214713.97718469448951.9345267166214713.97718469
448961.9345267166214713.97718469448971.9345267166214713.97718469
448981.9345267166214713.97718469448991.9345267166214713.97718469
449001.9345267166214713.97718469449011.9345267166214713.97718469
449021.9345267166214713.97718469449031.9345267166214713.97718469
449041.9345267166214713.97718469449051.9345267166214713.97718469
449061.9345267166214713.97718469449071.9345267166214713.97718469
449081.9345267166214713.97718469449091.9345267166214713.97718469
449101.9345267166214713.97718469449111.9345267166214713.97718469
449121.9345267166214713.97718469449131.9345267166214713.97718469
449141.9345267166214713.97718469449151.9345267166214713.97718469
449161.9345267166214713.97718469449171.9345267166214713.97718469
449181.9345267166214713.97718469449191.9345267166214713.97718469
449201.9345267166214713.97718469449211.9345267166214713.97718469
449221.9345267166214713.97718469449261.9345267166214713.97718469
448891.9345267166214703.97718469448901.9345267166214703.97718469
448911.9345267166214703.97718469448921.9345267166214703.97718469
448931.9345267166214703.97718469448941.9345267166214703.97718469